37
[[34,15],[35,7],[33,23],[36,31]]
C -0.5218465 1.8926277 -7.5020587
N 0.8606507 1.9747049 -7.5114249
H -2.0666365 1.6288470 -5.9000788
C 1.2305937 1.8512061 -6.1826265
C 0.0730343 1.6905570 -5.3413752
H 0.1101668 1.5738897 -4.2617578
C -1.0155883 1.7181430 -6.1605394
C 2.5297318 1.8822429 -5.7077965
N 3.6264376 2.2009771 -7.8861025
C 4.9570980 2.3419869 -8.2433536
C 5.8083242 2.2793251 -7.0836645
H 6.8910440 2.3658467 -7.1114647
C 4.9935204 2.0958683 -6.0069913
H 5.2614550 2.0000067 -4.9584292
C 3.6448114 2.0495463 -6.5094975
C -1.3349062 1.9599358 -8.6194378
H -1.1661414 2.3989051 -13.2025601
C -0.8993091 2.3191610 -12.1523769
C 0.4499643 2.3576156 -11.6506844
H -2.8003517 2.1002437 -11.0426239
N 0.4666381 2.2308982 -10.2715868
C -0.8657374 2.1148354 -9.9117557
C -1.7164787 2.1701788 -11.0721572
C 5.4250764 2.5145131 -9.5338466
H 3.9852904 2.8248621 -13.8992891
C 4.0212656 2.7245502 -12.8179982
C 5.1075441 2.7310175 -11.9953092
H 6.1575095 2.8364493 -12.2540687
C 4.6132627 2.5641805 -10.6530500
N 3.2324299 2.4574039 -10.6462352
C 2.8641816 2.5562056 -11.9775546
C 1.5662647 2.5072996 -12.4542092
Co 2.0465432 2.2159811 -9.0788577
H 6.5007623 2.6125435 -9.6783633
H -2.4119069 1.8810860 -8.4729271
H 2.6841313 1.7735407 -4.6344727
H 1.4131706 2.5968177 -13.5294746
