[[385,304],[386,220],[387,308],[388,216],[389,47],[390,43],[391,52],[392,309],[393,313],[394,258],[395,262],[396,48],[397,267],[398,263],[399,215], [400,211]]
 OpenBabel11132018293D

401462  0  0  0  0  0  0  0  0999 V2000
   29.8732   24.7570    7.5534 Zn  0  0  0  0  0  0  0  0  0  0  0  0
   30.4176   21.4691    8.4286 C   0  0  0  0  0  0  0  0  0  0  0  0
   29.0966   21.8329    8.1302 C   0  0  0  0  0  0  0  0  0  0  0  0
   27.9611   20.9619    8.2556 C   0  0  0  0  0  0  0  0  0  0  0  0
   26.8571   21.7105    8.0074 C   0  0  0  0  0  0  0  0  0  0  0  0
   27.3075   23.0370    7.6864 C   0  0  0  0  0  0  0  0  0  0  0  0
   28.6689   23.0701    7.7489 N   0  0  0  0  0  0  0  0  0  0  0  0
   33.2664   25.3351    7.5828 C   0  0  0  0  0  0  0  0  0  0  0  0
   32.8349   24.0471    7.9460 C   0  0  0  0  0  0  0  0  0  0  0  0
   33.6491   23.0485    8.5837 C   0  0  0  0  0  0  0  0  0  0  0  0
   32.8604   21.9646    8.7936 C   0  0  0  0  0  0  0  0  0  0  0  0
   31.5490   22.2935    8.3079 C   0  0  0  0  0  0  0  0  0  0  0  0
   31.5673   23.5598    7.8033 N   0  0  0  0  0  0  0  0  0  0  0  0
   26.4786   24.1435    7.4315 C   0  0  0  0  0  0  0  0  0  0  0  0
   26.9086   25.4204    7.0450 C   0  0  0  0  0  0  0  0  0  0  0  0
   26.0338   26.5246    6.7585 C   0  0  0  0  0  0  0  0  0  0  0  0
   26.8209   27.6078    6.5412 C   0  0  0  0  0  0  0  0  0  0  0  0
   28.1848   27.1702    6.6618 C   0  0  0  0  0  0  0  0  0  0  0  0
   28.2019   25.8334    6.9270 N   0  0  0  0  0  0  0  0  0  0  0  0
   29.3191   27.9952    6.6164 C   0  0  0  0  0  0  0  0  0  0  0  0
   30.6556   27.5679    6.6799 C   0  0  0  0  0  0  0  0  0  0  0  0
   31.7913   28.4190    6.4566 C   0  0  0  0  0  0  0  0  0  0  0  0
   32.8993   27.6681    6.6823 C   0  0  0  0  0  0  0  0  0  0  0  0
   32.4481   26.3611    7.0802 C   0  0  0  0  0  0  0  0  0  0  0  0
   31.0893   26.3191    6.9985 N   0  0  0  0  0  0  0  0  0  0  0  0
   35.2211   29.4810   19.0553 C   0  0  0  0  0  0  0  0  0  0  0  0
   35.9948   28.8447   18.0836 C   0  0  0  0  0  0  0  0  0  0  0  0
   35.4373   28.4859   16.8643 C   0  0  0  0  0  0  0  0  0  0  0  0
   34.0662   28.7110   16.6219 C   0  0  0  0  0  0  0  0  0  0  0  0
   33.2659   29.2863   17.6397 C   0  0  0  0  0  0  0  0  0  0  0  0
   33.8685   29.7093   18.8429 C   0  0  0  0  0  0  0  0  0  0  0  0
   33.4849   28.4030   15.3731 C   0  0  0  0  0  0  0  0  0  0  0  0
   32.1244   28.5886   15.1760 C   0  0  0  0  0  0  0  0  0  0  0  0
   31.3279   29.0964   16.2008 C   0  0  0  0  0  0  0  0  0  0  0  0
   31.8851   29.4623   17.4158 C   0  0  0  0  0  0  0  0  0  0  0  0
   31.0415   30.0820   18.4510 C   0  0  0  0  0  0  0  0  0  0  0  0
   31.7238   30.6227   19.5430 N   0  0  0  0  0  0  0  0  0  0  0  0
   33.0815   30.4788   19.8263 C   0  0  0  0  0  0  0  0  0  0  0  0
   36.2892   27.9232   15.7991 C   0  0  0  0  0  0  0  0  0  0  0  0
   35.6862   27.7956   14.5450 N   0  0  0  0  0  0  0  0  0  0  0  0
   34.3408   27.9903   14.2458 C   0  0  0  0  0  0  0  0  0  0  0  0
   30.9393   31.4748   20.4033 C   0  0  0  0  0  0  0  0  0  0  0  0
   36.5722   27.5551   13.4304 C   0  0  0  0  0  0  0  0  0  0  0  0
   30.6584   31.0822   21.7107 C   0  0  0  0  0  0  0  0  0  0  0  0
   29.8563   31.9102   22.4883 C   0  0  0  0  0  0  0  0  0  0  0  0
   29.2971   33.0795   21.9756 C   0  0  0  0  0  0  0  0  0  0  0  0
   29.6395   33.4660   20.6768 C   0  0  0  0  0  0  0  0  0  0  0  0
   30.4682   32.6844   19.8812 C   0  0  0  0  0  0  0  0  0  0  0  0
   36.5361   26.3277   12.7687 C   0  0  0  0  0  0  0  0  0  0  0  0
   37.3527   26.1557   11.6556 C   0  0  0  0  0  0  0  0  0  0  0  0
   38.2085   27.1695   11.2313 C   0  0  0  0  0  0  0  0  0  0  0  0
   38.2623   28.3641   11.9475 C   0  0  0  0  0  0  0  0  0  0  0  0
   37.4258   28.5878   13.0354 C   0  0  0  0  0  0  0  0  0  0  0  0
   29.8342   30.1660   18.3628 O   0  0  0  0  0  0  0  0  0  0  0  0
   33.5756   30.9844   20.8114 O   0  0  0  0  0  0  0  0  0  0  0  0
   33.9193   27.8598   13.1158 O   0  0  0  0  0  0  0  0  0  0  0  0
   37.4501   27.6221   15.9654 O   0  0  0  0  0  0  0  0  0  0  0  0
   27.9999   19.9108    8.4907 H   0  0  0  0  0  0  0  0  0  0  0  0
   25.8329   21.3778    8.0259 H   0  0  0  0  0  0  0  0  0  0  0  0
   24.9577   26.4741    6.7191 H   0  0  0  0  0  0  0  0  0  0  0  0
   26.4995   28.6085    6.3054 H   0  0  0  0  0  0  0  0  0  0  0  0
   33.1413   21.0349    9.2596 H   0  0  0  0  0  0  0  0  0  0  0  0
   34.6832   23.1630    8.8645 H   0  0  0  0  0  0  0  0  0  0  0  0
   33.9290   27.9671    6.5713 H   0  0  0  0  0  0  0  0  0  0  0  0
   31.7401   29.4481    6.1387 H   0  0  0  0  0  0  0  0  0  0  0  0
   30.6295   20.1344    9.0298 C   0  0  0  0  0  0  0  0  0  0  0  0
   31.1828   17.7161   10.3231 C   0  0  0  0  0  0  0  0  0  0  0  0
   31.5575   19.2363    8.4942 C   0  0  0  0  0  0  0  0  0  0  0  0
   29.9368   19.7689   10.1905 C   0  0  0  0  0  0  0  0  0  0  0  0
   30.1997   18.5713   10.8299 C   0  0  0  0  0  0  0  0  0  0  0  0
   31.8230   18.0331    9.1224 C   0  0  0  0  0  0  0  0  0  0  0  0
   25.0447   23.9971    7.7664 C   0  0  0  0  0  0  0  0  0  0  0  0
   22.4647   23.5711    8.7537 C   0  0  0  0  0  0  0  0  0  0  0  0
   24.2272   23.0107    7.2105 C   0  0  0  0  0  0  0  0  0  0  0  0
   24.5103   24.8299    8.7573 C   0  0  0  0  0  0  0  0  0  0  0  0
   23.2287   24.6378    9.2375 C   0  0  0  0  0  0  0  0  0  0  0  0
   22.9481   22.8000    7.6943 C   0  0  0  0  0  0  0  0  0  0  0  0
   29.0924   29.4497    6.7647 C   0  0  0  0  0  0  0  0  0  0  0  0
   28.4532   32.0824    7.4362 C   0  0  0  0  0  0  0  0  0  0  0  0
   29.6052   30.0349    7.9291 C   0  0  0  0  0  0  0  0  0  0  0  0
   28.3179   30.2297    5.9044 C   0  0  0  0  0  0  0  0  0  0  0  0
   28.0107   31.5412    6.2293 C   0  0  0  0  0  0  0  0  0  0  0  0
   29.2914   31.3352    8.2661 C   0  0  0  0  0  0  0  0  0  0  0  0
   34.6714   25.6850    7.8748 C   0  0  0  0  0  0  0  0  0  0  0  0
   37.3058   26.3291    8.5832 C   0  0  0  0  0  0  0  0  0  0  0  0
   34.9515   26.8245    8.6389 C   0  0  0  0  0  0  0  0  0  0  0  0
   35.7406   24.8955    7.4388 C   0  0  0  0  0  0  0  0  0  0  0  0
   37.0413   25.2126    7.7866 C   0  0  0  0  0  0  0  0  0  0  0  0
   36.2496   27.1578    8.9729 C   0  0  0  0  0  0  0  0  0  0  0  0
   38.9373   29.1453   11.6163 H   0  0  0  0  0  0  0  0  0  0  0  0
   37.3283   25.2220   11.1059 H   0  0  0  0  0  0  0  0  0  0  0  0
   29.6794   31.7760    9.1767 H   0  0  0  0  0  0  0  0  0  0  0  0
   30.2198   29.4397    8.5955 H   0  0  0  0  0  0  0  0  0  0  0  0
   27.9674   29.8121    4.9673 H   0  0  0  0  0  0  0  0  0  0  0  0
   27.3982   32.1421    5.5678 H   0  0  0  0  0  0  0  0  0  0  0  0
   29.6755   18.3069   11.7405 H   0  0  0  0  0  0  0  0  0  0  0  0
   29.2134   20.4548   10.6182 H   0  0  0  0  0  0  0  0  0  0  0  0
   32.5525   17.3459    8.7113 H   0  0  0  0  0  0  0  0  0  0  0  0
   32.0663   19.4840    7.5693 H   0  0  0  0  0  0  0  0  0  0  0  0
   37.0489   28.6565   18.2559 H   0  0  0  0  0  0  0  0  0  0  0  0
   35.6733   29.8185   19.9811 H   0  0  0  0  0  0  0  0  0  0  0  0
   31.6894   28.3472   14.2120 H   0  0  0  0  0  0  0  0  0  0  0  0
   30.2652   29.2410   16.0471 H   0  0  0  0  0  0  0  0  0  0  0  0
   29.2358   34.3918   20.2809 H   0  0  0  0  0  0  0  0  0  0  0  0
   29.6637   31.6354   23.5162 H   0  0  0  0  0  0  0  0  0  0  0  0
   37.8655   24.5925    7.4546 H   0  0  0  0  0  0  0  0  0  0  0  0
   35.5486   24.0412    6.7993 H   0  0  0  0  0  0  0  0  0  0  0  0
   34.1344   27.4395    8.9990 H   0  0  0  0  0  0  0  0  0  0  0  0
   36.4471   28.0566    9.5440 H   0  0  0  0  0  0  0  0  0  0  0  0
   24.5943   22.4097    6.3864 H   0  0  0  0  0  0  0  0  0  0  0  0
   22.3259   22.0154    7.2812 H   0  0  0  0  0  0  0  0  0  0  0  0
   25.1299   25.6096    9.1868 H   0  0  0  0  0  0  0  0  0  0  0  0
   28.1458   33.4013    7.7731 N   0  0  0  0  0  0  0  0  0  0  0  0
   27.8074   25.1546   26.9787 Zn  0  0  0  0  0  0  0  0  0  0  0  0
   31.1595   25.5625   27.6463 C   0  0  0  0  0  0  0  0  0  0  0  0
   30.4625   26.6857   27.1670 C   0  0  0  0  0  0  0  0  0  0  0  0
   31.0709   27.8925   26.6766 C   0  0  0  0  0  0  0  0  0  0  0  0
   30.0661   28.7142   26.2816 C   0  0  0  0  0  0  0  0  0  0  0  0
   28.8321   28.0130   26.5040 C   0  0  0  0  0  0  0  0  0  0  0  0
   29.1070   26.7895   27.0385 N   0  0  0  0  0  0  0  0  0  0  0  0
   28.0177   21.8657   27.8788 C   0  0  0  0  0  0  0  0  0  0  0  0
   29.1629   22.6557   28.0718 C   0  0  0  0  0  0  0  0  0  0  0  0
   30.4246   22.1549   28.5421 C   0  0  0  0  0  0  0  0  0  0  0  0
   31.2961   23.1952   28.5215 C   0  0  0  0  0  0  0  0  0  0  0  0
   30.5822   24.3322   28.0040 C   0  0  0  0  0  0  0  0  0  0  0  0
   29.2795   23.9852   27.8109 N   0  0  0  0  0  0  0  0  0  0  0  0
   27.5616   28.4862   26.1350 C   0  0  0  0  0  0  0  0  0  0  0  0
   26.3659   27.7544   26.1732 C   0  0  0  0  0  0  0  0  0  0  0  0
   25.0794   28.2712   25.7973 C   0  0  0  0  0  0  0  0  0  0  0  0
   24.2063   27.2336   25.8411 C   0  0  0  0  0  0  0  0  0  0  0  0
   24.9402   26.0803   26.2846 C   0  0  0  0  0  0  0  0  0  0  0  0
   26.2389   26.4361   26.4972 N   0  0  0  0  0  0  0  0  0  0  0  0
   24.4252   24.7773   26.4008 C   0  0  0  0  0  0  0  0  0  0  0  0
   25.1129   23.6637   26.9027 C   0  0  0  0  0  0  0  0  0  0  0  0
   24.5478   22.3492   27.0408 C   0  0  0  0  0  0  0  0  0  0  0  0
   25.5495   21.5274   27.4425 C   0  0  0  0  0  0  0  0  0  0  0  0
   26.7290   22.3367   27.5839 C   0  0  0  0  0  0  0  0  0  0  0  0
   26.4194   23.6307   27.2886 N   0  0  0  0  0  0  0  0  0  0  0  0
   32.1294   28.0840   26.6122 H   0  0  0  0  0  0  0  0  0  0  0  0
   30.1594   29.6987   25.8545 H   0  0  0  0  0  0  0  0  0  0  0  0
   24.8651   29.2967   25.5441 H   0  0  0  0  0  0  0  0  0  0  0  0
   23.1553   27.2630   25.6078 H   0  0  0  0  0  0  0  0  0  0  0  0
   32.3244   23.1970   28.8450 H   0  0  0  0  0  0  0  0  0  0  0  0
   30.6046   21.1444   28.8728 H   0  0  0  0  0  0  0  0  0  0  0  0
   25.4843   20.4702   27.6386 H   0  0  0  0  0  0  0  0  0  0  0  0
   23.5162   22.0917   26.8632 H   0  0  0  0  0  0  0  0  0  0  0  0
   32.6348   25.6339   27.6519 C   0  0  0  0  0  0  0  0  0  0  0  0
   35.4299   25.7842   27.5045 C   0  0  0  0  0  0  0  0  0  0  0  0
   33.3264   26.6807   28.2703 C   0  0  0  0  0  0  0  0  0  0  0  0
   33.3736   24.6438   26.9926 C   0  0  0  0  0  0  0  0  0  0  0  0
   34.7523   24.7022   26.9352 C   0  0  0  0  0  0  0  0  0  0  0  0
   34.7058   26.7557   28.1995 C   0  0  0  0  0  0  0  0  0  0  0  0
   27.5025   29.8432   25.5495 C   0  0  0  0  0  0  0  0  0  0  0  0
   27.5950   32.3558   24.3227 C   0  0  0  0  0  0  0  0  0  0  0  0
   28.0109   30.9515   26.2335 C   0  0  0  0  0  0  0  0  0  0  0  0
   26.9817   30.0311   24.2634 C   0  0  0  0  0  0  0  0  0  0  0  0
   27.0168   31.2722   23.6547 C   0  0  0  0  0  0  0  0  0  0  0  0
   28.0447   32.1983   25.6361 C   0  0  0  0  0  0  0  0  0  0  0  0
   23.1058   24.5213   25.7815 C   0  0  0  0  0  0  0  0  0  0  0  0
   20.7637   24.2290   24.2843 C   0  0  0  0  0  0  0  0  0  0  0  0
   23.0388   23.6002   24.7288 C   0  0  0  0  0  0  0  0  0  0  0  0
   21.9486   25.2198   26.1326 C   0  0  0  0  0  0  0  0  0  0  0  0
   20.7865   25.0743   25.3958 C   0  0  0  0  0  0  0  0  0  0  0  0
   21.8788   23.4358   23.9958 C   0  0  0  0  0  0  0  0  0  0  0  0
   28.2469   20.4116   27.7299 C   0  0  0  0  0  0  0  0  0  0  0  0
   28.5284   17.7268   27.0203 C   0  0  0  0  0  0  0  0  0  0  0  0
   29.1263   20.0307   26.7088 C   0  0  0  0  0  0  0  0  0  0  0  0
   27.5699   19.4188   28.4401 C   0  0  0  0  0  0  0  0  0  0  0  0
   27.7188   18.0843   28.0983 C   0  0  0  0  0  0  0  0  0  0  0  0
   29.2683   18.7055   26.3533 C   0  0  0  0  0  0  0  0  0  0  0  0
   21.8419   22.7346   23.1708 H   0  0  0  0  0  0  0  0  0  0  0  0
   23.9265   23.0403   24.4556 H   0  0  0  0  0  0  0  0  0  0  0  0
   21.9576   25.8759   26.9954 H   0  0  0  0  0  0  0  0  0  0  0  0
   19.8983   25.6389   25.6522 H   0  0  0  0  0  0  0  0  0  0  0  0
   35.3067   23.9136   26.4414 H   0  0  0  0  0  0  0  0  0  0  0  0
   32.8537   23.8335   26.4938 H   0  0  0  0  0  0  0  0  0  0  0  0
   35.2365   27.5738   28.6719 H   0  0  0  0  0  0  0  0  0  0  0  0
   32.7762   27.4262   28.8335 H   0  0  0  0  0  0  0  0  0  0  0  0
   27.1828   17.3150   28.6411 H   0  0  0  0  0  0  0  0  0  0  0  0
   26.9356   19.6918   29.2758 H   0  0  0  0  0  0  0  0  0  0  0  0
   29.6670   20.7953   26.1618 H   0  0  0  0  0  0  0  0  0  0  0  0
   29.9390   18.4201   25.5517 H   0  0  0  0  0  0  0  0  0  0  0  0
   28.3730   30.8313   27.2485 H   0  0  0  0  0  0  0  0  0  0  0  0
   28.4518   33.0518   26.1646 H   0  0  0  0  0  0  0  0  0  0  0  0
   26.5833   29.1810   23.7199 H   0  0  0  0  0  0  0  0  0  0  0  0
   19.5928   24.1122   23.5503 N   0  0  0  0  0  0  0  0  0  0  0  0
   28.3529   33.9224   22.7254 C   0  0  0  0  0  0  0  0  0  0  0  0
   27.6450   33.6137   23.7340 N   0  0  0  0  0  0  0  0  0  0  0  0
   26.6327   31.4037   22.6502 H   0  0  0  0  0  0  0  0  0  0  0  0
   28.2368   34.9359   22.3397 H   0  0  0  0  0  0  0  0  0  0  0  0
   38.6348   26.6414    8.8690 N   0  0  0  0  0  0  0  0  0  0  0  0
   39.0299   27.0415   10.0080 C   0  0  0  0  0  0  0  0  0  0  0  0
   40.0706   27.3522   10.0952 H   0  0  0  0  0  0  0  0  0  0  0  0
   25.6831   21.9435   19.2740 C   0  0  0  0  0  0  0  0  0  0  0  0
   25.2439   22.4254   18.0378 C   0  0  0  0  0  0  0  0  0  0  0  0
   24.8921   21.5471   17.0239 C   0  0  0  0  0  0  0  0  0  0  0  0
   24.9888   20.1535   17.2403 C   0  0  0  0  0  0  0  0  0  0  0  0
   25.4602   19.6683   18.4865 C   0  0  0  0  0  0  0  0  0  0  0  0
   25.8047   20.5810   19.5082 C   0  0  0  0  0  0  0  0  0  0  0  0
   24.6176   19.2284   16.2415 C   0  0  0  0  0  0  0  0  0  0  0  0
   24.7328   17.8647   16.4644 C   0  0  0  0  0  0  0  0  0  0  0  0
   25.2087   17.3893   17.6846 C   0  0  0  0  0  0  0  0  0  0  0  0
   25.5614   18.2767   18.6905 C   0  0  0  0  0  0  0  0  0  0  0  0
   26.0498   17.7504   19.9750 C   0  0  0  0  0  0  0  0  0  0  0  0
   26.4436   18.7018   20.9192 N   0  0  0  0  0  0  0  0  0  0  0  0
   26.3227   20.0817   20.8004 C   0  0  0  0  0  0  0  0  0  0  0  0
   24.3760   22.0558   15.7363 C   0  0  0  0  0  0  0  0  0  0  0  0
   23.9153   21.0851   14.8478 N   0  0  0  0  0  0  0  0  0  0  0  0
   24.0324   19.7043   14.9765 C   0  0  0  0  0  0  0  0  0  0  0  0
   27.0181   18.1428   22.1236 C   0  0  0  0  0  0  0  0  0  0  0  0
   23.1819   21.5356   13.6889 C   0  0  0  0  0  0  0  0  0  0  0  0
   28.2687   17.5255   22.0287 C   0  0  0  0  0  0  0  0  0  0  0  0
   28.7476   16.8344   23.1360 C   0  0  0  0  0  0  0  0  0  0  0  0
   28.0317   16.8047   24.3307 C   0  0  0  0  0  0  0  0  0  0  0  0
   26.8250   17.4944   24.4179 C   0  0  0  0  0  0  0  0  0  0  0  0
   26.2842   18.1432   23.3099 C   0  0  0  0  0  0  0  0  0  0  0  0
   23.8685   21.9798   12.5621 C   0  0  0  0  0  0  0  0  0  0  0  0
   23.1284   22.3661   11.4496 C   0  0  0  0  0  0  0  0  0  0  0  0
   21.7323   22.3590   11.4614 C   0  0  0  0  0  0  0  0  0  0  0  0
   21.0817   21.9001   12.6127 C   0  0  0  0  0  0  0  0  0  0  0  0
   21.7875   21.4733   13.7300 C   0  0  0  0  0  0  0  0  0  0  0  0
   26.1253   16.5654   20.2150 O   0  0  0  0  0  0  0  0  0  0  0  0
   26.6491   20.8161   21.7123 O   0  0  0  0  0  0  0  0  0  0  0  0
   23.6417   18.9605   14.1035 O   0  0  0  0  0  0  0  0  0  0  0  0
   24.3176   23.2310   15.4456 O   0  0  0  0  0  0  0  0  0  0  0  0
   23.6579   22.6806   10.5623 H   0  0  0  0  0  0  0  0  0  0  0  0
   25.1647   23.4936   17.8666 H   0  0  0  0  0  0  0  0  0  0  0  0
   25.9480   22.6401   20.0609 H   0  0  0  0  0  0  0  0  0  0  0  0
   24.4368   17.1771   15.6798 H   0  0  0  0  0  0  0  0  0  0  0  0
   25.2990   16.3242   17.8668 H   0  0  0  0  0  0  0  0  0  0  0  0
   26.2796   17.4805   25.3545 H   0  0  0  0  0  0  0  0  0  0  0  0
   29.6977   16.3152   23.0780 H   0  0  0  0  0  0  0  0  0  0  0  0
   20.8790   22.8306   10.3597 C   0  0  0  0  0  0  0  0  0  0  0  0
   28.5360   15.9975   25.4680 C   0  0  0  0  0  0  0  0  0  0  0  0
   19.9972   21.8755   12.6262 H   0  0  0  0  0  0  0  0  0  0  0  0
   19.8105   22.7357   10.5624 H   0  0  0  0  0  0  0  0  0  0  0  0
   28.7815   14.9610   25.2388 H   0  0  0  0  0  0  0  0  0  0  0  0
   21.1859   23.3310    9.2335 N   0  0  0  0  0  0  0  0  0  0  0  0
   28.6819   16.3856   26.6671 N   0  0  0  0  0  0  0  0  0  0  0  0
   22.8304   25.2752   10.0179 H   0  0  0  0  0  0  0  0  0  0  0  0
   36.8169   23.2795   18.0117 C   0  0  0  0  0  0  0  0  0  0  0  0
   36.4663   22.4783   16.9240 C   0  0  0  0  0  0  0  0  0  0  0  0
   35.2201   21.8694   16.8682 C   0  0  0  0  0  0  0  0  0  0  0  0
   34.2943   22.0687   17.9136 C   0  0  0  0  0  0  0  0  0  0  0  0
   34.6780   22.8176   19.0536 C   0  0  0  0  0  0  0  0  0  0  0  0
   35.9484   23.4295   19.0837 C   0  0  0  0  0  0  0  0  0  0  0  0
   33.0046   21.5016   17.8619 C   0  0  0  0  0  0  0  0  0  0  0  0
   32.1352   21.6587   18.9297 C   0  0  0  0  0  0  0  0  0  0  0  0
   32.5330   22.3415   20.0777 C   0  0  0  0  0  0  0  0  0  0  0  0
   33.7956   22.9113   20.1513 C   0  0  0  0  0  0  0  0  0  0  0  0
   34.2557   23.5169   21.4143 C   0  0  0  0  0  0  0  0  0  0  0  0
   35.5219   24.0942   21.3847 N   0  0  0  0  0  0  0  0  0  0  0  0
   36.3745   24.1796   20.2808 C   0  0  0  0  0  0  0  0  0  0  0  0
   34.8971   20.9373   15.7702 C   0  0  0  0  0  0  0  0  0  0  0  0
   33.6080   20.4059   15.7804 N   0  0  0  0  0  0  0  0  0  0  0  0
   32.5963   20.6986   16.6975 C   0  0  0  0  0  0  0  0  0  0  0  0
   36.0615   24.5435   22.6465 C   0  0  0  0  0  0  0  0  0  0  0  0
   33.2859   19.3922   14.8055 C   0  0  0  0  0  0  0  0  0  0  0  0
   37.0760   23.7845   23.2344 C   0  0  0  0  0  0  0  0  0  0  0  0
   37.5789   24.2043   24.4609 C   0  0  0  0  0  0  0  0  0  0  0  0
   37.0456   25.3127   25.1166 C   0  0  0  0  0  0  0  0  0  0  0  0
   36.0404   26.0539   24.5000 C   0  0  0  0  0  0  0  0  0  0  0  0
   35.5465   25.6901   23.2513 C   0  0  0  0  0  0  0  0  0  0  0  0
   33.0824   18.0839   15.2575 C   0  0  0  0  0  0  0  0  0  0  0  0
   32.6858   17.1233   14.3351 C   0  0  0  0  0  0  0  0  0  0  0  0
   32.5148   17.4352   12.9835 C   0  0  0  0  0  0  0  0  0  0  0  0
   32.8103   18.7297   12.5594 C   0  0  0  0  0  0  0  0  0  0  0  0
   33.1726   19.7277   13.4576 C   0  0  0  0  0  0  0  0  0  0  0  0
   33.5973   23.4893   22.4328 O   0  0  0  0  0  0  0  0  0  0  0  0
   37.4108   24.8027   20.3411 O   0  0  0  0  0  0  0  0  0  0  0  0
   31.4703   20.2729   16.5449 O   0  0  0  0  0  0  0  0  0  0  0  0
   35.7010   20.6217   14.9192 O   0  0  0  0  0  0  0  0  0  0  0  0
   32.4905   16.1098   14.6688 H   0  0  0  0  0  0  0  0  0  0  0  0
   37.1713   22.3102   16.1177 H   0  0  0  0  0  0  0  0  0  0  0  0
   37.7865   23.7640   18.0482 H   0  0  0  0  0  0  0  0  0  0  0  0
   31.1489   21.2141   18.8719 H   0  0  0  0  0  0  0  0  0  0  0  0
   31.8637   22.4213   20.9276 H   0  0  0  0  0  0  0  0  0  0  0  0
   35.6423   26.9256   25.0062 H   0  0  0  0  0  0  0  0  0  0  0  0
   38.3673   23.6375   24.9432 H   0  0  0  0  0  0  0  0  0  0  0  0
   32.0179   16.3820   12.0846 C   0  0  0  0  0  0  0  0  0  0  0  0
   37.5343   25.6323   26.4756 C   0  0  0  0  0  0  0  0  0  0  0  0
   32.7573   18.9690   11.5063 H   0  0  0  0  0  0  0  0  0  0  0  0
   32.1190   15.3661   12.4684 H   0  0  0  0  0  0  0  0  0  0  0  0
   38.6159   25.6321   26.6079 H   0  0  0  0  0  0  0  0  0  0  0  0
   31.4683   16.5071   10.9462 N   0  0  0  0  0  0  0  0  0  0  0  0
   36.8221   25.8700   27.5000 N   0  0  0  0  0  0  0  0  0  0  0  0
   24.9032   26.3856   15.7131 C   0  0  0  0  0  0  0  0  0  0  0  0
   25.4261   27.0079   14.5761 C   0  0  0  0  0  0  0  0  0  0  0  0
   25.2039   28.3559   14.3326 C   0  0  0  0  0  0  0  0  0  0  0  0
   24.4211   29.1045   15.2394 C   0  0  0  0  0  0  0  0  0  0  0  0
   23.8673   28.4700   16.3802 C   0  0  0  0  0  0  0  0  0  0  0  0
   24.1245   27.0994   16.6116 C   0  0  0  0  0  0  0  0  0  0  0  0
   24.1656   30.4739   15.0208 C   0  0  0  0  0  0  0  0  0  0  0  0
   23.3860   31.1967   15.9115 C   0  0  0  0  0  0  0  0  0  0  0  0
   22.8309   30.5711   17.0260 C   0  0  0  0  0  0  0  0  0  0  0  0
   23.0612   29.2238   17.2594 C   0  0  0  0  0  0  0  0  0  0  0  0
   22.3943   28.5657   18.3958 C   0  0  0  0  0  0  0  0  0  0  0  0
   22.6446   27.2038   18.5358 N   0  0  0  0  0  0  0  0  0  0  0  0
   23.5257   26.4278   17.7836 C   0  0  0  0  0  0  0  0  0  0  0  0
   25.8069   29.0186   13.1559 C   0  0  0  0  0  0  0  0  0  0  0  0
   25.5554   30.3796   13.0242 N   0  0  0  0  0  0  0  0  0  0  0  0
   24.7304   31.1537   13.8441 C   0  0  0  0  0  0  0  0  0  0  0  0
   21.8511   26.5314   19.5368 C   0  0  0  0  0  0  0  0  0  0  0  0
   26.1763   31.1128   11.9426 C   0  0  0  0  0  0  0  0  0  0  0  0
   20.5318   26.2036   19.2171 C   0  0  0  0  0  0  0  0  0  0  0  0
   19.7665   25.5616   20.1819 C   0  0  0  0  0  0  0  0  0  0  0  0
   20.2775   25.2662   21.4510 C   0  0  0  0  0  0  0  0  0  0  0  0
   21.5884   25.6490   21.7412 C   0  0  0  0  0  0  0  0  0  0  0  0
   22.3964   26.2616   20.7891 C   0  0  0  0  0  0  0  0  0  0  0  0
   25.7235   30.9400   10.6345 C   0  0  0  0  0  0  0  0  0  0  0  0
   26.2681   31.7472    9.6381 C   0  0  0  0  0  0  0  0  0  0  0  0
   27.1883   32.7467    9.9437 C   0  0  0  0  0  0  0  0  0  0  0  0
   27.6311   32.8854   11.2573 C   0  0  0  0  0  0  0  0  0  0  0  0
   27.1568   32.0550   12.2666 C   0  0  0  0  0  0  0  0  0  0  0  0
   21.6468   29.1444   19.1537 O   0  0  0  0  0  0  0  0  0  0  0  0
   23.7416   25.2748   18.0884 O   0  0  0  0  0  0  0  0  0  0  0  0
   24.5148   32.3184   13.5901 O   0  0  0  0  0  0  0  0  0  0  0  0
   26.5018   28.4330   12.3487 O   0  0  0  0  0  0  0  0  0  0  0  0
   25.9384   31.6340    8.6117 H   0  0  0  0  0  0  0  0  0  0  0  0
   26.0270   26.4372   13.8775 H   0  0  0  0  0  0  0  0  0  0  0  0
   25.0948   25.3336   15.8949 H   0  0  0  0  0  0  0  0  0  0  0  0
   23.2077   32.2492   15.7211 H   0  0  0  0  0  0  0  0  0  0  0  0
   22.2046   31.1247   17.7169 H   0  0  0  0  0  0  0  0  0  0  0  0
   21.9977   25.4668   22.7240 H   0  0  0  0  0  0  0  0  0  0  0  0
   18.7435   25.2832   19.9518 H   0  0  0  0  0  0  0  0  0  0  0  0
   27.6593   33.6968    8.9069 C   0  0  0  0  0  0  0  0  0  0  0  0
   19.3894   24.5396   22.3719 C   0  0  0  0  0  0  0  0  0  0  0  0
   28.3646   33.6498   11.4882 H   0  0  0  0  0  0  0  0  0  0  0  0
   27.5492   34.7532    9.1500 H   0  0  0  0  0  0  0  0  0  0  0  0
   18.4010   24.3351   21.9561 H   0  0  0  0  0  0  0  0  0  0  0  0
   29.0190   25.3367   13.9142 C   0  0  0  0  0  0  0  0  0  0  0  0
   28.9168   24.0415   14.4012 C   0  0  0  0  0  0  0  0  0  0  0  0
   28.9865   22.8691   13.5728 C   0  0  0  0  0  0  0  0  0  0  0  0
   28.7954   21.8035   14.3865 C   0  0  0  0  0  0  0  0  0  0  0  0
   28.6484   22.3240   15.7128 C   0  0  0  0  0  0  0  0  0  0  0  0
   28.6861   23.6974   15.7059 N   0  0  0  0  0  0  0  0  0  0  0  0
   27.5918   28.1631   17.5417 C   0  0  0  0  0  0  0  0  0  0  0  0
   28.0374   27.7141   16.3177 C   0  0  0  0  0  0  0  0  0  0  0  0
   28.2336   28.5694   15.1855 C   0  0  0  0  0  0  0  0  0  0  0  0
   28.7095   27.7909   14.1832 C   0  0  0  0  0  0  0  0  0  0  0  0
   28.7504   26.4505   14.6913 C   0  0  0  0  0  0  0  0  0  0  0  0
   28.3747   26.4203   16.0119 N   0  0  0  0  0  0  0  0  0  0  0  0
   28.6350   21.5345   16.8401 C   0  0  0  0  0  0  0  0  0  0  0  0
   28.6806   22.0554   18.1148 C   0  0  0  0  0  0  0  0  0  0  0  0
   28.8806   21.2581   19.2879 C   0  0  0  0  0  0  0  0  0  0  0  0
   28.9057   22.1100   20.3419 C   0  0  0  0  0  0  0  0  0  0  0  0
   28.6656   23.4212   19.8132 C   0  0  0  0  0  0  0  0  0  0  0  0
   28.5688   23.3823   18.4439 N   0  0  0  0  0  0  0  0  0  0  0  0
   28.4459   24.5421   20.5954 C   0  0  0  0  0  0  0  0  0  0  0  0
   28.0796   25.7688   20.0600 C   0  0  0  0  0  0  0  0  0  0  0  0
   27.6463   26.8879   20.8509 C   0  0  0  0  0  0  0  0  0  0  0  0
   27.3275   27.8787   19.9845 C   0  0  0  0  0  0  0  0  0  0  0  0
   27.6029   27.3771   18.6715 C   0  0  0  0  0  0  0  0  0  0  0  0
   28.0267   26.0713   18.7261 N   0  0  0  0  0  0  0  0  0  0  0  0
   29.1474   22.8756   12.5069 H   0  0  0  0  0  0  0  0  0  0  0  0
   28.7836   20.7547   14.1366 H   0  0  0  0  0  0  0  0  0  0  0  0
   28.9795   20.1850   19.2784 H   0  0  0  0  0  0  0  0  0  0  0  0
   29.0316   21.8795   21.3869 H   0  0  0  0  0  0  0  0  0  0  0  0
   28.9713   28.0781   13.1783 H   0  0  0  0  0  0  0  0  0  0  0  0
   28.0203   29.6258   15.1833 H   0  0  0  0  0  0  0  0  0  0  0  0
   26.9686   28.8733   20.1962 H   0  0  0  0  0  0  0  0  0  0  0  0
   27.5854   26.8959   21.9272 H   0  0  0  0  0  0  0  0  0  0  0  0
   29.3127   25.4908   12.4742 C   0  0  0  0  0  0  0  0  0  0  0  0
   29.7741   25.4717    9.7230 N   0  0  0  0  0  0  0  0  0  0  0  0
   28.3426   25.9300   11.5770 C   0  0  0  0  0  0  0  0  0  0  0  0
   30.5485   25.1178   11.9512 C   0  0  0  0  0  0  0  0  0  0  0  0
   30.7363   25.1277   10.5830 C   0  0  0  0  0  0  0  0  0  0  0  0
   28.6117   25.8993   10.2229 C   0  0  0  0  0  0  0  0  0  0  0  0
   28.4766   24.4357   22.0690 C   0  0  0  0  0  0  0  0  0  0  0  0
   28.3521   24.5053   24.8550 N   0  0  0  0  0  0  0  0  0  0  0  0
   29.4245   25.1291   22.8177 C   0  0  0  0  0  0  0  0  0  0  0  0
   27.5120   23.7130   22.7662 C   0  0  0  0  0  0  0  0  0  0  0  0
   27.4841   23.7796   24.1452 C   0  0  0  0  0  0  0  0  0  0  0  0
   29.3290   25.1333   24.1954 C   0  0  0  0  0  0  0  0  0  0  0  0
   28.4010   24.8909   17.2206 Co  0  0  2  0  0  0  0  0  0  0  0  0
   28.6874   20.4594   16.7198 H   0  0  0  0  0  0  0  0  0  0  0  0
   27.8568   26.2116    9.5085 H   0  0  0  0  0  0  0  0  0  0  0  0
   27.3751   26.2638   11.9281 H   0  0  0  0  0  0  0  0  0  0  0  0
   31.3510   24.8085   12.6089 H   0  0  0  0  0  0  0  0  0  0  0  0
   31.6900   24.8304   10.1591 H   0  0  0  0  0  0  0  0  0  0  0  0
   26.7702   23.1283   22.2385 H   0  0  0  0  0  0  0  0  0  0  0  0
   26.7217   23.2451   24.7029 H   0  0  0  0  0  0  0  0  0  0  0  0
   30.0538   25.6770   24.7928 H   0  0  0  0  0  0  0  0  0  0  0  0
   30.2209   25.6728   22.3253 H   0  0  0  0  0  0  0  0  0  0  0  0
   27.3118   29.2048   17.6385 H   0  0  0  0  0  0  0  0  0  0  0  0
   19.9826   26.5196   17.9878 H   0  0  0  0  0  0  0  0  0  0  0  0
   21.1147   20.9855   14.8355 H   0  0  0  0  0  0  0  0  0  0  0  0
   23.7194   26.5403   21.0800 H   0  0  0  0  0  0  0  0  0  0  0  0
   25.2470   22.0905   12.5490 H   0  0  0  0  0  0  0  0  0  0  0  0
   30.8079   33.1213   18.6138 H   0  0  0  0  0  0  0  0  0  0  0  0
   31.1349   29.9060   22.2604 H   0  0  0  0  0  0  0  0  0  0  0  0
   37.4502   29.8125   13.6774 H   0  0  0  0  0  0  0  0  0  0  0  0
   24.7570   30.0041   10.3139 H   0  0  0  0  0  0  0  0  0  0  0  0
   27.6541   32.1880   13.5502 H   0  0  0  0  0  0  0  0  0  0  0  0
   37.5755   22.6368   22.6463 H   0  0  0  0  0  0  0  0  0  0  0  0
   34.5496   26.4414   22.6560 H   0  0  0  0  0  0  0  0  0  0  0  0
   35.6951   25.3073   13.1740 H   0  0  0  0  0  0  0  0  0  0  0  0
   33.3960   21.0064   12.9804 H   0  0  0  0  0  0  0  0  0  0  0  0
   33.2714   17.7238   16.5793 H   0  0  0  0  0  0  0  0  0  0  0  0
   25.0494   18.7587   23.4045 H   0  0  0  0  0  0  0  0  0  0  0  0
   29.0283   17.5756   20.8741 H   0  0  0  0  0  0  0  0  0  0  0  0
  1  7  1  0  0  0  0
  1 13  1  0  0  0  0
  1364  1  0  0  0  0
  2 66  1  0  0  0  0
  3  4  1  0  0  0  0
  3  2  2  0  0  0  0
  4 58  1  0  0  0  0
  5 59  1  0  0  0  0
  5  4  2  0  0  0  0
  6  7  1  0  0  0  0
  6  5  1  0  0  0  0
  7  3  1  0  0  0  0
  8 84  1  0  0  0  0
  8  9  2  0  0  0  0
  9 10  1  0  0  0  0
 10 11  2  0  0  0  0
 10 63  1  0  0  0  0
 11 62  1  0  0  0  0
 12  2  1  0  0  0  0
 12 11  1  0  0  0  0
 13  9  1  0  0  0  0
 13 12  2  0  0  0  0
 14  6  2  0  0  0  0
 14 72  1  0  0  0  0
 15 14  1  0  0  0  0
 16 15  1  0  0  0  0
 17 18  1  0  0  0  0
 17 16  2  0  0  0  0
 18 19  1  0  0  0  0
 19 15  2  0  0  0  0
 19  1  1  0  0  0  0
 20 18  2  0  0  0  0
 20 21  1  0  0  0  0
 20 78  1  0  0  0  0
 21 25  1  0  0  0  0
 22 21  2  0  0  0  0
 22 23  1  0  0  0  0
 23 24  2  0  0  0  0
 24  8  1  0  0  0  0
 25 24  1  0  0  0  0
 25  1  1  0  0  0  0
 26101  1  0  0  0  0
 27100  1  0  0  0  0
 27 26  2  0  0  0  0
 28 27  1  0  0  0  0
 29 28  2  0  0  0  0
 29 30  1  0  0  0  0
 30 31  2  0  0  0  0
 31 26  1  0  0  0  0
 31 38  1  0  0  0  0
 32 29  1  0  0  0  0
 33 32  2  0  0  0  0
 33 34  1  0  0  0  0
 34 35  2  0  0  0  0
 35 30  1  0  0  0  0
 35 36  1  0  0  0  0
 36 37  1  0  0  0  0
 37 38  1  0  0  0  0
 37 42  1  0  0  0  0
 38 55  2  0  0  0  0
 39 57  2  0  0  0  0
 39 28  1  0  0  0  0
 40 39  1  0  0  0  0
 41 40  1  0  0  0  0
 41 32  1  0  0  0  0
 42 44  1  0  0  0  0
 43 40  1  0  0  0  0
 44391  1  0  0  0  0
 44 45  2  0  0  0  0
 45105  1  0  0  0  0
 46 45  1  0  0  0  0
 46187  1  0  0  0  0
 47 46  2  0  0  0  0
 48 42  2  0  0  0  0
 48 47  1  0  0  0  0
 49397  1  0  0  0  0
 49 43  2  0  0  0  0
 50 49  1  0  0  0  0
 51 50  2  0  0  0  0
 51 52  1  0  0  0  0
 52 53  2  0  0  0  0
 53 43  1  0  0  0  0
 53392  1  0  0  0  0
 54 36  2  0  0  0  0
 56 41  2  0  0  0  0
 60 16  1  0  0  0  0
 61 17  1  0  0  0  0
 64 23  1  0  0  0  0
 65 22  1  0  0  0  0
 66 69  1  0  0  0  0
 67 70  1  0  0  0  0
 67285  1  0  0  0  0
 68 66  2  0  0  0  0
 68 71  1  0  0  0  0
 69 97  1  0  0  0  0
 69 70  2  0  0  0  0
 70 96  1  0  0  0  0
 71 67  2  0  0  0  0
 72 75  1  0  0  0  0
 73238  1  0  0  0  0
 73 76  1  0  0  0  0
 74 77  1  0  0  0  0
 74 72  2  0  0  0  0
 75112  1  0  0  0  0
 75 76  2  0  0  0  0
 76240  1  0  0  0  0
 77 73  2  0  0  0  0
 78 80  1  0  0  0  0
 79113  1  0  0  0  0
 79 83  1  0  0  0  0
 80 83  2  0  0  0  0
 80 93  1  0  0  0  0
 81 82  1  0  0  0  0
 81 78  2  0  0  0  0
 82 79  2  0  0  0  0
 83 92  1  0  0  0  0
 84 86  1  0  0  0  0
 85191  1  0  0  0  0
 85 89  1  0  0  0  0
 86 89  2  0  0  0  0
 86108  1  0  0  0  0
 87 88  1  0  0  0  0
 87 84  2  0  0  0  0
 88 85  2  0  0  0  0
 89109  1  0  0  0  0
 90 52  1  0  0  0  0
 91 50  1  0  0  0  0
 94 81  1  0  0  0  0
 95 82  1  0  0  0  0
 98 71  1  0  0  0  0
 99 68  1  0  0  0  0
102 33  1  0  0  0  0
103 34  1  0  0  0  0
104 47  1  0  0  0  0
106 88  1  0  0  0  0
107 87  1  0  0  0  0
110 74  1  0  0  0  0
111 77  1  0  0  0  0
113326  2  0  0  0  0
114120  1  0  0  0  0
114138  1  0  0  0  0
114126  1  0  0  0  0
115147  1  0  0  0  0
115125  1  0  0  0  0
116115  2  0  0  0  0
117116  1  0  0  0  0
118119  1  0  0  0  0
118117  2  0  0  0  0
119120  1  0  0  0  0
120116  1  0  0  0  0
121122  2  0  0  0  0
122123  1  0  0  0  0
123144  1  0  0  0  0
124123  2  0  0  0  0
124143  1  0  0  0  0
125124  1  0  0  0  0
126125  2  0  0  0  0
126122  1  0  0  0  0
127128  1  0  0  0  0
127119  2  0  0  0  0
128132  2  0  0  0  0
129130  2  0  0  0  0
129128  1  0  0  0  0
130131  1  0  0  0  0
131133  2  0  0  0  0
131132  1  0  0  0  0
132114  1  0  0  0  0
133134  1  0  0  0  0
134135  2  0  0  0  0
134138  1  0  0  0  0
135136  1  0  0  0  0
136137  2  0  0  0  0
136145  1  0  0  0  0
137121  1  0  0  0  0
138137  1  0  0  0  0
139117  1  0  0  0  0
140118  1  0  0  0  0
141129  1  0  0  0  0
142130  1  0  0  0  0
146135  1  0  0  0  0
147149  1  0  0  0  0
148152  1  0  0  0  0
149178  1  0  0  0  0
150147  2  0  0  0  0
151150  1  0  0  0  0
151148  2  0  0  0  0
152149  2  0  0  0  0
152177  1  0  0  0  0
153127  1  0  0  0  0
153155  1  0  0  0  0
154158  1  0  0  0  0
155183  1  0  0  0  0
156153  2  0  0  0  0
157156  1  0  0  0  0
157154  2  0  0  0  0
158184  1  0  0  0  0
158155  2  0  0  0  0
159162  1  0  0  0  0
159133  1  0  0  0  0
160163  1  0  0  0  0
161159  2  0  0  0  0
162173  1  0  0  0  0
163174  1  0  0  0  0
163162  2  0  0  0  0
164160  2  0  0  0  0
164161  1  0  0  0  0
165121  1  0  0  0  0
165168  1  0  0  0  0
166169  1  0  0  0  0
167165  2  0  0  0  0
168180  1  0  0  0  0
169168  2  0  0  0  0
169179  1  0  0  0  0
170167  1  0  0  0  0
170166  2  0  0  0  0
171164  1  0  0  0  0
172161  1  0  0  0  0
175151  1  0  0  0  0
176150  1  0  0  0  0
181167  1  0  0  0  0
182170  1  0  0  0  0
185156  1  0  0  0  0
186160  1  0  0  0  0
187188  2  0  0  0  0
188154  1  0  0  0  0
189157  1  0  0  0  0
190187  1  0  0  0  0
191192  2  0  0  0  0
192193  1  0  0  0  0
192 51  1  0  0  0  0
194199  1  0  0  0  0
194228  1  0  0  0  0
195194  2  0  0  0  0
196197  2  0  0  0  0
196195  1  0  0  0  0
197198  1  0  0  0  0
198203  1  0  0  0  0
198199  2  0  0  0  0
199206  1  0  0  0  0
200201  2  0  0  0  0
200197  1  0  0  0  0
201202  1  0  0  0  0
202230  1  0  0  0  0
202203  2  0  0  0  0
203204  1  0  0  0  0
204222  2  0  0  0  0
204205  1  0  0  0  0
205210  1  0  0  0  0
206205  1  0  0  0  0
206223  2  0  0  0  0
207196  1  0  0  0  0
208209  1  0  0  0  0
208207  1  0  0  0  0
209200  1  0  0  0  0
210216  1  0  0  0  0
211221  1  0  0  0  0
211208  1  0  0  0  0
212210  2  0  0  0  0
212213  1  0  0  0  0
213214  2  0  0  0  0
214215  1  0  0  0  0
214234  1  0  0  0  0
215231  1  0  0  0  0
216400  1  0  0  0  0
216215  2  0  0  0  0
217211  2  0  0  0  0
218219  2  0  0  0  0
218217  1  0  0  0  0
219220  1  0  0  0  0
220235  1  0  0  0  0
220221  2  0  0  0  0
221387  1  0  0  0  0
224209  2  0  0  0  0
225207  2  0  0  0  0
226218  1  0  0  0  0
227195  1  0  0  0  0
229201  1  0  0  0  0
232213  1  0  0  0  0
233236  1  0  0  0  0
233219  1  0  0  0  0
234239  2  0  0  0  0
237234  1  0  0  0  0
238233  2  0  0  0  0
239166  1  0  0  0  0
241275  1  0  0  0  0
241246  1  0  0  0  0
242241  2  0  0  0  0
243242  1  0  0  0  0
243244  2  0  0  0  0
244245  1  0  0  0  0
245246  2  0  0  0  0
245250  1  0  0  0  0
246253  1  0  0  0  0
247244  1  0  0  0  0
247248  2  0  0  0  0
248249  1  0  0  0  0
249250  2  0  0  0  0
249277  1  0  0  0  0
250251  1  0  0  0  0
251269  2  0  0  0  0
252251  1  0  0  0  0
252257  1  0  0  0  0
253270  2  0  0  0  0
253252  1  0  0  0  0
254255  1  0  0  0  0
254243  1  0  0  0  0
255256  1  0  0  0  0
256247  1  0  0  0  0
257259  2  0  0  0  0
257263  1  0  0  0  0
258264  1  0  0  0  0
258255  1  0  0  0  0
259260  1  0  0  0  0
260279  1  0  0  0  0
260261  2  0  0  0  0
261281  1  0  0  0  0
262278  1  0  0  0  0
262261  1  0  0  0  0
263262  2  0  0  0  0
264399  1  0  0  0  0
265273  1  0  0  0  0
265264  2  0  0  0  0
266265  1  0  0  0  0
267266  2  0  0  0  0
267268  1  0  0  0  0
268258  2  0  0  0  0
271256  2  0  0  0  0
272254  2  0  0  0  0
274242  1  0  0  0  0
276248  1  0  0  0  0
280283  1  0  0  0  0
280266  1  0  0  0  0
281284  1  0  0  0  0
281286  2  0  0  0  0
282267  1  0  0  0  0
285280  2  0  0  0  0
286148  1  0  0  0  0
287321  1  0  0  0  0
287292  1  0  0  0  0
288287  2  0  0  0  0
289288  1  0  0  0  0
289290  2  0  0  0  0
290291  1  0  0  0  0
291292  2  0  0  0  0
291296  1  0  0  0  0
292299  1  0  0  0  0
293290  1  0  0  0  0
293294  2  0  0  0  0
294295  1  0  0  0  0
295296  2  0  0  0  0
295323  1  0  0  0  0
296297  1  0  0  0  0
297298  1  0  0  0  0
297315  2  0  0  0  0
298303  1  0  0  0  0
299316  2  0  0  0  0
299298  1  0  0  0  0
300289  1  0  0  0  0
301300  1  0  0  0  0
301302  1  0  0  0  0
302293  1  0  0  0  0
303309  1  0  0  0  0
304314  1  0  0  0  0
304301  1  0  0  0  0
305303  2  0  0  0  0
305306  1  0  0  0  0
306307  2  0  0  0  0
307308  1  0  0  0  0
307327  1  0  0  0  0
308324  1  0  0  0  0
309388  1  0  0  0  0
309308  2  0  0  0  0
310304  2  0  0  0  0
311312  2  0  0  0  0
311310  1  0  0  0  0
312313  1  0  0  0  0
313328  1  0  0  0  0
313314  2  0  0  0  0
314394  1  0  0  0  0
317302  2  0  0  0  0
318300  2  0  0  0  0
319311  1  0  0  0  0
320288  1  0  0  0  0
322294  1  0  0  0  0
325306  1  0  0  0  0
326329  1  0  0  0  0
326312  1  0  0  0  0
327186  2  0  0  0  0
330327  1  0  0  0  0
331332  2  0  0  0  0
331341  1  0  0  0  0
332336  1  0  0  0  0
333334  2  0  0  0  0
333332  1  0  0  0  0
334335  1  0  0  0  0
335343  2  0  0  0  0
336335  1  0  0  0  0
337385  1  0  0  0  0
337353  1  0  0  0  0
338337  2  0  0  0  0
339338  1  0  0  0  0
340341  1  0  0  0  0
340339  2  0  0  0  0
341342  2  0  0  0  0
342338  1  0  0  0  0
343344  1  0  0  0  0
344348  2  0  0  0  0
344345  1  0  0  0  0
345346  2  0  0  0  0
346358  1  0  0  0  0
347346  1  0  0  0  0
347349  2  0  0  0  0
348347  1  0  0  0  0
349369  1  0  0  0  0
350349  1  0  0  0  0
350351  2  0  0  0  0
351362  1  0  0  0  0
352361  1  0  0  0  0
352351  1  0  0  0  0
353354  1  0  0  0  0
353352  2  0  0  0  0
354350  1  0  0  0  0
355333  1  0  0  0  0
356334  1  0  0  0  0
357345  1  0  0  0  0
359340  1  0  0  0  0
360339  1  0  0  0  0
363331  1  0  0  0  0
364368  1  0  0  0  0
364367  1  0  0  0  0
365378  1  0  0  0  0
365363  1  0  0  0  0
366363  2  0  0  0  0
366379  1  0  0  0  0
367366  1  0  0  0  0
368365  2  0  0  0  0
369372  2  0  0  0  0
369371  1  0  0  0  0
370114  1  0  0  0  0
371374  2  0  0  0  0
372373  1  0  0  0  0
373382  1  0  0  0  0
373370  1  0  0  0  0
374383  1  0  0  0  0
374370  1  0  0  0  0
375342  1  1  0  0  0
375336  1  0  0  0  0
375348  1  0  0  0  0
375354  1  0  0  0  0
376343  1  0  0  0  0
377368  1  0  0  0  0
380367  1  0  0  0  0
381372  1  0  0  0  0
384371  1  0  0  0  0
386305  1  0  0  0  0
389217  1  0  0  0  0
390 48  1  0  0  0  0
393310  1  0  0  0  0
395259  1  0  0  0  0
396263  1  0  0  0  0
398268  1  0  0  0  0
401212  1  0  0  0  0
M  END
