90
[[31,25],[91,90],[97,94]]
Mn        0.34827174745697   -2.25077090759414    1.00364026590340
O         0.71313143466692    0.59200354000858    1.47971098454133
C         0.55618583105797   -0.52775494387017    1.19417889048056
C        -0.28716020640661   -2.13842302159873    2.64085481793834
O        -0.66399278213278   -1.94099033562789    3.72972994432290
C         0.29457651730930   -1.82794319824968   -1.99931868656536
C         2.25179271988422   -2.94818342005271   -1.30037532404503
Br        0.20910908370545   -4.76309337988505    1.01225923953270
P         2.48446274190972   -2.67431631109789    1.36865288544407
P        -1.58582266933307   -1.94400195946496   -0.21074297209950
C         1.05662077471236   -2.34880410595257   -0.93596556601607
N        -0.96001902037264   -1.32316887985579   -1.65723491281503
N         2.99295538604952   -3.58787595523782   -0.20430593707725
C         2.73761510892003   -2.99851800835136   -2.60209044532545
C         0.76180375126115   -1.83625544035286   -3.30580724964420
C         1.98867056587290   -2.40985386210657   -3.60282874456441
H         3.67535963366459   -3.48344432110727   -2.83009757021830
H         2.34588986797835   -2.41743437951081   -4.62122368249133
H         0.15796392735450   -1.41077139766569   -4.09615898443269
H        -1.58956225464479   -1.11704671218157   -2.42398769831158
H         3.99817690941826   -3.65241160211332   -0.39557025372794
H         2.60397456318453   -4.53908464263572   -0.07071818226511
C        -2.97479405486216   -0.76432892686472    0.24490324311160
C        -2.64918036428120    0.23114054733818    1.36913168542297
C        -2.36848067924644    1.65170111516986    0.87039055916791
C        -1.80205763939138    1.61235385180307   -0.54005397468292
C        -2.88117220340276    1.13475152699197   -1.50547540214957
C        -3.66438403693201   -0.05618395119630   -0.92883644127125
H        -3.70077894538354   -1.47569290068696    0.66474121044978
H        -3.48432678805565    0.25915727935417    2.07535820100787
H        -1.66661820090599    2.14069697490206    1.54818285416457
H        -0.95379463166426    0.92596653390603   -0.56054140594631
H        -2.42380304207175    0.88105502930374   -2.46319087018139
H        -3.89730330759778   -0.77200289757078   -1.72127594489080
H        -4.62279276478847    0.30464669844874   -0.54524330430939
H        -3.57937966564434    1.95395215543965   -1.69387795132650
H        -1.44495344407995    2.59995759879242   -0.83891015211986
H        -3.29097331371673    2.23826688711739    0.86905485563114
H        -1.78523146495211   -0.13918006137459    1.92762830406836
C        -2.70037609149639   -3.32551233384732   -0.83218346102038
C        -2.00799300045098   -4.28201627785385   -1.79974917978640
C        -3.04276981626300   -5.19990892074273   -2.45796561835560
C        -4.11076257533136   -5.66040159226918   -1.45382511371975
C        -3.58474180475462   -5.56072359447786   -0.02602990353029
C        -3.33872594159275   -4.09493087244659    0.33595272008418
H        -3.48920176678606   -2.80876811880236   -1.39983899379611
H        -1.47196729104201   -3.73003332554534   -2.57654546098166
H        -2.52154144294401   -6.06417290846126   -2.87281326054118
H        -4.41005367996229   -6.68688170264663   -1.67125076016123
H        -2.65779375607373   -6.12694202060143    0.06575504040795
H        -2.69652482170889   -4.04569358476825    1.22070914527544
H        -4.29090315799492   -3.62895756027039    0.60666965717797
H        -4.30481730096512   -5.98906542375545    0.67456227131344
H        -5.00326779452439   -5.03490976705777   -1.54076124821114
H        -3.52487488124688   -4.67792207931731   -3.28857405408717
H        -1.27889306366065   -4.88743084012336   -1.26557610643680
C         3.16019813039637   -3.95502716400377    2.54985213997446
C         4.67609270228958   -4.10542486521226    2.67092311950179
C         4.98399112014110   -5.38907819373853    3.45856467695513
C         3.95807052406736   -5.63067332555482    4.57504834465144
C         3.36870237906505   -4.30770799141738    5.05263785694284
C         2.54224856181804   -3.67193771509374    3.93136738007848
H         2.75985604027982   -4.91446897606730    2.19733721351379
H         5.16108646114102   -4.17136892000553    1.69445780477142
H         5.98486561195232   -5.30300645486468    3.88402716907705
H         4.43223757467685   -6.15285230135721    5.40647795536073
H         4.17619818698977   -3.63960505059946    5.35727259814985
H         2.45736913134077   -2.59410551674062    4.10120340261510
H         1.52858690774853   -4.07932923732556    3.94866290426464
H         2.73176642558287   -4.46862914737055    5.92330466844088
H         3.14478630452130   -6.26071684896951    4.21157605615051
H         4.98472097309547   -6.24440846604992    2.78157017410599
H         5.09287538690869   -3.24749350054849    3.19843251897568
C         3.84091722398039   -1.40480928841272    1.32134571920902
C         3.76787970830358   -0.46857648146725    0.11505199762806
C         5.01174002498059    0.42928486857619    0.07826850763337
C         5.46500825557801    0.83092628322314    1.48880858335202
C         4.27476067008804    0.83622074492922    2.44138080899436
C         3.74057594629800   -0.58811145666275    2.62262059404237
H         4.80241110596588   -1.93065915665110    1.28450589853870
H         3.70010827641182   -1.02428018243443   -0.82146892212936
H         4.77608004976265    1.32025960294704   -0.50498615302331
H         5.92887611253324    1.81744624841708    1.46297220522152
H         3.49194129497507    1.47908486474290    2.03774004122141
H         2.69209108503390   -0.53721631074256    2.94042509435717
H         4.30081025423855   -1.08971023280313    3.41436812052917
H         4.56374319296118    1.24036240431321    3.41302829708796
H         6.21260890847531    0.12797541678641    1.86238503273178
H         5.82662816839454   -0.08909394027969   -0.43114684101191
H         2.86793774791847    0.14054597168790    0.19058860651080
