36
[[35,3],[34,3],[21,4],[20,4],[16,12],[14,12],[15,11],[13,11],[10,6],[8,6],[9,5],[7,5]]
Ru        -0.01320        0.03470        0.14320
H          0.33630       -1.75410        0.00170
H         -0.13070        1.85780        0.15100
P          0.03290        0.34200       -2.34130
P          0.18410        0.07290        2.59940
C          1.82610        0.77620       -2.27760
C          1.99130        0.41270        2.63020
H          1.94550        1.85670       -2.05770
H          2.14390        1.50780        2.51790
H          2.28260        0.56430       -3.26720
H          2.45780        0.10690        3.58630
C          2.57650       -0.03780       -1.17910
C          2.65680       -0.22600        1.35550
H          3.66360        0.19230       -1.23610
H          3.74630        0.00080        1.37860
H          2.44860       -1.13050       -1.33120
H          2.53910       -1.32740        1.34760
N          2.06310        0.36540        0.13180
H          2.21290        1.39940        0.21000
P         -2.54560       -0.12090        0.00380
H         -0.35810        1.21750        3.06690
H          0.16570       -1.21550        3.00210
C         -4.35790       -0.23510       -0.11870
H         -4.77790       -0.30590        0.86290
H         -4.73800        0.63760       -0.60730
H         -4.62310       -1.10420       -0.68370
C         -2.69230       -1.57160        1.09310
H         -2.63690       -1.25770        2.11450
H         -3.63080       -2.05490        0.91890
H         -1.89530       -2.25490        0.88620
C         -2.55260       -0.17530       -1.81540
H         -2.44800        0.81680       -2.20230
H         -1.73810       -0.77910       -2.15730
H         -3.47570       -0.59550       -2.15610
H         -0.10790       -0.91750       -2.80630
H         -0.41980        1.25660       -3.22510
