[[1,0],[11,9]]
 OpenBabel10122011353D

 59 60  0  0  0  0  0  0  0  0999 V2000
   15.3980   10.5491    5.2034 Ru  0  0  0  0  0  0  0  0  0  0  0  0
   16.9439   10.7731    5.4520 H   0  0  0  0  0  0  0  0  0  0  0  0
   15.7468   10.3527    2.9458 P   0  0  0  0  0  4  0  0  0  0  0  0
   14.9265   11.3402    7.3235 P   0  0  0  0  0  4  0  0  0  0  0  0
   16.0604    7.6485    5.7452 O   0  0  0  0  0  1  0  0  0  0  0  0
   14.2737   12.1247    4.6361 N   0  0  0  0  0  0  0  0  0  0  0  0
   14.5299   11.5516    2.2257 C   0  0  0  0  0  0  0  0  0  0  0  0
   14.8802   11.9774    1.2738 H   0  0  0  0  0  0  0  0  0  0  0  0
   13.6166   10.9742    2.0208 H   0  0  0  0  0  0  0  0  0  0  0  0
   14.2308   12.6389    3.2622 C   0  0  0  0  0  0  0  0  0  0  0  0
   14.9513   13.4762    3.1471 H   0  0  0  0  0  0  0  0  0  0  0  0
   13.2321   13.0747    3.0574 H   0  0  0  0  0  0  0  0  0  0  0  0
   13.7877   13.1571    5.5563 C   0  0  0  0  0  0  0  0  0  0  0  0
   12.8124   13.5472    5.2006 H   0  0  0  0  0  0  0  0  0  0  0  0
   14.4766   14.0279    5.5499 H   0  0  0  0  0  0  0  0  0  0  0  0
   13.6278   12.6270    6.9819 C   0  0  0  0  0  0  0  0  0  0  0  0
   12.6640   12.1040    7.0757 H   0  0  0  0  0  0  0  0  0  0  0  0
   13.6420   13.4406    7.7226 H   0  0  0  0  0  0  0  0  0  0  0  0
   16.2853   12.2724    8.2092 C   0  0  0  0  0  0  0  0  0  0  0  0
   15.8439   12.6794    9.1343 H   0  0  0  0  0  0  0  0  0  0  0  0
   17.4507   11.3398    8.5622 C   0  0  0  0  0  0  0  0  0  0  0  0
   17.8198   10.8290    7.6612 H   0  0  0  0  0  0  0  0  0  0  0  0
   17.1657   10.5718    9.2917 H   0  0  0  0  0  0  0  0  0  0  0  0
   18.2810   11.9191    8.9944 H   0  0  0  0  0  0  0  0  0  0  0  0
   16.7711   13.4398    7.3380 C   0  0  0  0  0  0  0  0  0  0  0  0
   17.6241   13.9396    7.8223 H   0  0  0  0  0  0  0  0  0  0  0  0
   15.9900   14.1951    7.1793 H   0  0  0  0  0  0  0  0  0  0  0  0
   17.0998   13.0763    6.3533 H   0  0  0  0  0  0  0  0  0  0  0  0
   14.0768   10.2899    8.6240 C   0  0  0  0  0  0  0  0  0  0  0  0
   13.1373   10.0391    8.1001 H   0  0  0  0  0  0  0  0  0  0  0  0
   14.7987    8.9711    8.9258 C   0  0  0  0  0  0  0  0  0  0  0  0
   15.7188    9.1353    9.5028 H   0  0  0  0  0  0  0  0  0  0  0  0
   15.0643    8.4269    8.0124 H   0  0  0  0  0  0  0  0  0  0  0  0
   14.1468    8.3232    9.5319 H   0  0  0  0  0  0  0  0  0  0  0  0
   13.7333   11.0502    9.9117 C   0  0  0  0  0  0  0  0  0  0  0  0
   13.0884   10.4315   10.5547 H   0  0  0  0  0  0  0  0  0  0  0  0
   13.2030   11.9932    9.7178 H   0  0  0  0  0  0  0  0  0  0  0  0
   14.6406   11.2811   10.4889 H   0  0  0  0  0  0  0  0  0  0  0  0
   15.3994    8.7261    2.0949 C   0  0  0  0  0  0  0  0  0  0  0  0
   16.1679    8.0563    2.5158 H   0  0  0  0  0  0  0  0  0  0  0  0
   14.0284    8.1835    2.5225 C   0  0  0  0  0  0  0  0  0  0  0  0
   13.9245    8.1663    3.6155 H   0  0  0  0  0  0  0  0  0  0  0  0
   13.8974    7.1578    2.1458 H   0  0  0  0  0  0  0  0  0  0  0  0
   13.2080    8.7914    2.1120 H   0  0  0  0  0  0  0  0  0  0  0  0
   15.5398    8.7657    0.5684 C   0  0  0  0  0  0  0  0  0  0  0  0
   16.5551    9.0336    0.2459 H   0  0  0  0  0  0  0  0  0  0  0  0
   14.8386    9.4876    0.1225 H   0  0  0  0  0  0  0  0  0  0  0  0
   15.3083    7.7777    0.1412 H   0  0  0  0  0  0  0  0  0  0  0  0
   17.4065   10.8737    2.2714 C   0  0  0  0  0  0  0  0  0  0  0  0
   17.3229   10.8595    1.1717 H   0  0  0  0  0  0  0  0  0  0  0  0
   17.7383   12.3024    2.7230 C   0  0  0  0  0  0  0  0  0  0  0  0
   17.7289   12.3719    3.8203 H   0  0  0  0  0  0  0  0  0  0  0  0
   17.0228   13.0377    2.3301 H   0  0  0  0  0  0  0  0  0  0  0  0
   18.7402   12.5876    2.3670 H   0  0  0  0  0  0  0  0  0  0  0  0
   18.4902    9.8846    2.7183 C   0  0  0  0  0  0  0  0  0  0  0  0
   18.3196    8.8713    2.3283 H   0  0  0  0  0  0  0  0  0  0  0  0
   18.5229    9.8239    3.8161 H   0  0  0  0  0  0  0  0  0  0  0  0
   19.4775   10.2165    2.3624 H   0  0  0  0  0  0  0  0  0  0  0  0
   15.8294    8.7898    5.5756 C   0  0  0  0  0  2  0  0  0  0  0  0
  1  2  1  0  0  0  0
  1 59  1  0  0  0  0
  1  4  1  0  0  0  0
  3  1  1  0  0  0  0
  4 19  1  0  0  0  0
  4 29  1  0  0  0  0
  6  1  1  0  0  0  0
  6 13  1  0  0  0  0
  7  3  1  0  0  0  0
  7 10  1  0  0  0  0
  8  7  1  0  0  0  0
  9  7  1  0  0  0  0
 10  6  1  0  0  0  0
 11 10  1  0  0  0  0
 12 10  1  0  0  0  0
 13 16  1  0  0  0  0
 14 13  1  0  0  0  0
 15 13  1  0  0  0  0
 16 17  1  0  0  0  0
 16  4  1  0  0  0  0
 16 18  1  0  0  0  0
 19 21  1  0  0  0  0
 19 20  1  0  0  0  0
 21 24  1  0  0  0  0
 21 23  1  0  0  0  0
 22 21  1  0  0  0  0
 25 26  1  0  0  0  0
 25 19  1  0  0  0  0
 27 25  1  0  0  0  0
 28 25  1  0  0  0  0
 29 31  1  0  0  0  0
 29 35  1  0  0  0  0
 30 29  1  0  0  0  0
 31 32  1  0  0  0  0
 31 34  1  0  0  0  0
 33 31  1  0  0  0  0
 35 38  1  0  0  0  0
 35 36  1  0  0  0  0
 37 35  1  0  0  0  0
 39 40  1  0  0  0  0
 39 41  1  0  0  0  0
 39  3  1  0  0  0  0
 41 42  1  0  0  0  0
 43 41  1  0  0  0  0
 44 41  1  0  0  0  0
 45 39  1  0  0  0  0
 46 45  1  0  0  0  0
 47 45  1  0  0  0  0
 48 45  1  0  0  0  0
 49 55  1  0  0  0  0
 49 51  1  0  0  0  0
 49  3  1  0  0  0  0
 50 49  1  0  0  0  0
 51 52  1  0  0  0  0
 53 51  1  0  0  0  0
 54 51  1  0  0  0  0
 55 57  1  0  0  0  0
 56 55  1  0  0  0  0
 58 55  1  0  0  0  0
 59  5  1  0  0  0  0
M  END
