63
[[1,0],[2,0]]
Ru        -0.01322        0.03471        0.14319
H          0.33629       -1.75410        0.00174
H         -0.13068        1.85778        0.15105
P          0.03294        0.34201       -2.34131
P          0.18411        0.07288        2.59944
C          1.82610        0.77624       -2.27758
C          1.99130        0.41268        2.63024
H          1.94551        1.85670       -2.05772
H          2.14390        1.50785        2.51791
H          2.28258        0.56432       -3.26723
H          2.45776        0.10685        3.58634
C          2.57650       -0.03782       -1.17913
C          2.65678       -0.22595        1.35551
H          3.66360        0.19231       -1.23606
H          3.74632        0.00076        1.37862
H          2.44859       -1.13049       -1.33123
H          2.53913       -1.32741        1.34757
N          2.06305        0.36540        0.13179
H          2.21288        1.39942        0.20998
C         -0.55420        1.63151        3.23597
C         -0.58826        1.59708       -3.55406
H         -0.30777        2.47031        2.55131
H         -0.41772        2.56661       -3.03545
C          0.15904       -1.68122        3.14763
C         -0.16341       -1.41370       -2.98952
H          0.97438       -2.25860        2.66937
H          0.60963       -2.02114       -2.47368
P         -2.54556       -0.12092        0.00380
H         -3.94534       -0.20905       -0.09078
C          0.12912       -1.52335       -4.49096
C          0.32434       -1.71842        4.67127
H          1.11323       -1.07613       -4.74269
H          1.27830       -1.25199        4.98659
H         -0.68211       -1.04937       -5.07728
H         -0.51421       -1.17684        5.16199
H          0.15689       -2.58872       -4.80706
H          0.31626       -2.76627        5.03627
C         -1.49531       -2.10293       -2.69813
C         -1.15833       -2.35173        2.77768
H         -2.34441       -1.56950       -3.16816
H         -2.02727       -1.77167        3.15975
H         -1.63772       -2.21008       -1.60715
H         -1.20518       -2.46142        1.68063
H         -1.47936       -3.13917       -3.10376
H         -1.20496       -3.37895        3.19515
C         -2.07366        1.47085        3.34691
C         -2.10068        1.46441       -3.74187
H         -2.32542        0.62762        4.02842
H         -2.35811        0.51171       -4.24510
H         -2.52675        1.27568        2.36155
H         -2.61602        1.51840       -2.76221
H         -2.53568        2.39538        3.75327
H         -2.49127        2.30688       -4.34854
C          0.00613        1.96418        4.62628
C          0.13922        1.74435       -4.89400
H          1.10209        2.12558        4.58461
H          1.21784        1.93746       -4.73698
H         -0.20498        1.15108        5.35091
H          0.00639        0.89576       -5.57773
H         -0.45312        2.90032        5.00966
H         -0.27110        2.63761       -5.41432
H         -2.65719       -1.22478        0.83267
H         -2.55089       -0.16235       -1.38109