74
[[28,27],[47,44],[54,53],[60,57],[73,70],[67,66]]
Ru          0.17774210845594    -0.37088509112156    -0.12245979912038
P           0.30357826634868     0.06677248119941     2.17969721262896
P          -0.40331948539568    -0.22600575947013    -2.39893418476890
C          -0.72166918088486     1.61435413086995     2.15931322460937
C          -2.23223514869663    -0.05140049964670    -2.15550149077078
H          -0.04339264325441     2.40165720150750     1.80945360584926
H          -2.76010230832098     0.36058960344009    -3.01920421167996
H          -1.10450719375900     1.89020354429297     3.14360232880382
H          -2.59284586698619    -1.06949759895773    -1.97761004863560
C          -1.82337502248685     1.48783614370946     1.15532289077618
C          -2.51282060882613     0.73556363646202    -0.91496394625309
N          -1.57982639702726     0.76976749916889     0.04709344422724
C           1.69340535490710    -1.39449542985047    -0.20178835026293
O           2.65191701850284    -2.05181666271522    -0.19078018219319
C          -3.73692100675982     1.38155158221357    -0.77631281776979
C          -3.02956987108712     2.14718545980505     1.35498570451991
C          -4.01160246110036     2.08576677806950     0.38126207777817
H          -4.46248270683328     1.31812024924916    -1.57180786738208
H          -4.95933824366841     2.58197289422729     0.51648976926251
H          -3.18926869595730     2.70464802204271     2.26419689181545
Cl         -1.21286002127626    -2.38785516908373     0.02583985046007
H           0.99985650836610     0.88291498841407    -0.27414288170425
C           1.92363218778089     0.71032737899120     2.94507201699091
C           2.74319829064444    -0.48539242583512     3.43354180044242
H           3.76931362203469    -0.17635340367131     3.62737880579601
H           2.76456234713063    -1.26037440218116     2.66617863825144
H           2.34274355688320    -0.90550996632740     4.35193858149221
C           2.72713089718166     1.39035845835595     1.83311304218212
H           3.65984444623812     1.77380314187214     2.24315860077312
H           2.18352574612222     2.22391618755552     1.39384405275188
H           2.96296017976614     0.68084155694355     1.04148303601670
C           1.73863366545012     1.73192892129950     4.07020036056517
H           2.72183062757920     1.99453138810656     4.45853099715577
H           1.15123724956715     1.34739199608625     4.89440086905580
H           1.27561463808382     2.64381515194194     3.70308168008148
C          -0.62007342684667    -1.00070612822467     3.45976842424681
C          -0.56810940873850    -0.52779169753861     4.91171158873454
H           0.42787571919779    -0.61999670192011     5.33401328778928
H          -1.23256968103275    -1.16070793158195     5.49992649151019
H          -0.91517642360193     0.49795555136513     5.01309015442826
C          -0.06258303377137    -2.42259096773708     3.36173475349926
H           0.95668188620805    -2.48890216560136     3.73032453210791
H          -0.07138057475223    -2.76170922727876     2.32736446263658
H          -0.67982082100343    -3.10856150543225     3.94087563023234
C          -2.08999822626875    -1.02157263301796     3.02622990538337
H          -2.18228626393048    -1.28146345478800     1.97387744746956
H          -2.57914229252852    -0.06573384041115     3.20067819882948
H          -2.62621788738685    -1.78308083176168     3.59152836628266
C           0.07759721818160     1.40679679106754    -3.25572877495385
C          -0.64456718638447     1.74444217503194    -4.56398103242818
H          -0.58500757897608     2.82033175087105    -4.72242649987618
H          -1.69821419178508     1.47802870963011    -4.52534076273801
H          -0.19074391069403     1.26696723270970    -5.42348950597878
C          -0.24200062313964     2.54149812416274    -2.27525557644485
H           0.19426598768913     3.46874295849800    -2.64242444320698
H           0.18468668031561     2.33965408305038    -1.29521257296288
H          -1.31626431186859     2.68503760778077    -2.17341663260960
C           1.59269109109435     1.35269565842438    -3.46141622977813
H           1.96666299820301     2.32218558987124    -3.78470368051315
H           1.86927850812050     0.61591648684832    -4.21155838507830
H           2.08048491885911     1.08460084164303    -2.52292696331750
C          -0.25226727110540    -1.67904905150067    -3.63709805250514
C          -0.18655922561754    -1.29975428955465    -5.11603841719333
H           0.68688905239778    -0.69658207572180    -5.34113123539661
H          -1.08695878080581    -0.78188399471579    -5.43216860808321
H          -0.10901685034121    -2.21665476251104    -5.70020568466166
C           1.04786952696814    -2.38477059417126    -3.24242809582843
H           1.88879481245794    -1.69182755126028    -3.23997210560694
H           1.26794012308760    -3.19928964501399    -3.93092418174930
H           0.95270056595945    -2.80490185015740    -2.24113836684075
C          -1.41210394820037    -2.66590196452995    -3.47777637515938
H          -1.55538331763040    -2.95478964121108    -2.43931628415020
H          -1.18116698017285    -3.57202617690754    -4.03735102129925
H          -2.34047502864949    -2.25945799969390    -3.87445521116100