23
[[19,2],[20,2],[22,3],[21,3],[10,9],[11,9],[14,12],[13,12],[17,15],[16,15],[8,6],[7,6]]
Ru        15.39800       10.54910        5.20340
H         16.94390       10.77310        5.45200
P         15.74680       10.35270        2.94580
P         14.92650       11.34020        7.32350
O         16.06040        7.64850        5.74520
N         14.27370       12.12470        4.63610
C         14.52990       11.55160        2.22570
H         14.88020       11.97740        1.27380
H         13.61660       10.97420        2.02080
C         14.23080       12.63890        3.26220
H         14.95130       13.47620        3.14710
H         13.23210       13.07470        3.05740
C         13.78770       13.15710        5.55630
H         12.81240       13.54720        5.20060
H         14.47660       14.02790        5.54990
C         13.62780       12.62700        6.98190
H         12.66400       12.10400        7.07570
H         13.64200       13.44060        7.72260
C         15.82940        8.78980        5.57560
H         15.49580        9.17730        2.33100
H         16.94770       10.72970        2.45780
H         15.90700       12.01290        7.96260
H         14.31480       10.58410        8.25980
