24
[[18,5],[20,7]]
Mn        0.08496334555105   -1.11321388372423   -0.01463945147996
O         0.45437285408537   -1.78873209570138   -2.82053742220884
C         0.31452007548471   -1.55402987842265   -1.68920932126126
C        -0.73912194010661    0.33071239732637   -0.61077244287320
O        -1.28677157966802    1.28739664758995   -0.96380808736422
C         0.59493478982881   -4.20834227511006    0.19213625120139
H         0.51213548631434   -2.84438657370173    1.67057666729326
C         2.44411015117812   -2.82445023165232    1.05064584010866
C        -0.81985564867117   -4.17287280510903   -0.41374353115333
C         3.15300017362641   -1.99695168802721   -0.01536963626200
H        -2.61327517947836   -2.65426477867801   -0.82542307530544
H         2.83140272768423    0.07695244405199   -1.16594058596006
S        -1.82780304248479   -2.74233626418192    0.24758626064107
S         2.47403749166670   -0.25947875191783    0.07583930964399
N         0.99774477735735   -2.91416570823813    0.77520302296574
H        -0.16386466933635   -0.48977758322183    2.08081269531661
H        -0.77519261417179   -4.03898912353593   -1.49293372232573
H        -1.37734071902493   -5.07640056853409   -0.16850578921703
H         1.30250511889309   -4.45633951228717   -0.60436592104446
H         0.64689212792796   -4.98758533218274    0.96408968897933
H         2.59734231731600   -2.33813918563596    2.01902061048464
H         2.89372832565755   -3.82394667460066    1.10041559963663
H         4.22238619394066   -1.93204694056492    0.18347130845180
H         2.96144646189187   -2.38091301974735   -1.01701486789081