13

C                 -3.00000735   -0.74200903    0.00004538
C                 -2.48669710   -2.19394309   -0.00023776
C                 -2.48663398   -0.01579898   -1.25720032
C                 -4.54000735   -0.74198454    0.00001049
At                -3.25008997   -3.27382688    1.86930292
At                -0.19669710   -2.19397952   -0.00018588
At                -3.25000525   -3.27306767   -1.87025134
At                -3.24994214   -1.09492356   -3.12721390
At                -5.30331548   -1.82110914   -1.87000309
At                -0.19663398   -0.01583539   -1.25714844
At                -3.24993299    2.14324582   -1.25677929
At                -5.30330634    1.41706027    0.00043152
At                -5.30340022   -1.82186833    1.86955117