/mnt/c/Users/Adrian/OneDrive/Desktop/Uni - Files/TU Delft/2022-2023/Thesis/JansenProject/Thesis_Project/open-bidentate-explorer/open-bidentate-explorer/Workflow1/ChemSpaX/substituents_xyz/C2H5NOCH3.xyz
 OpenBabel11072218293D

 13 12  0  0  1  0  0  0  0  0999 V2000
    1.5484   -2.0322    0.0001 C   0  0  1  0  0  3  0  0  0  0  0  0
    2.0251   -1.3582    1.1677 O   0  0  0  0  0  0  0  0  0  0  0  0
    2.0617   -1.3062   -1.2573 C   0  0  0  0  0  0  0  0  0  0  0  0
    1.7454   -1.8379   -2.1303 H   0  0  0  0  0  0  0  0  0  0  0  0
    1.6659   -0.3124   -1.2820 H   0  0  0  0  0  0  0  0  0  0  0  0
    3.1306   -1.2638   -1.2333 H   0  0  0  0  0  0  0  0  0  0  0  0
    2.0383   -3.4182   -0.0001 N   0  0  0  0  0  0  0  0  0  0  0  0
    1.7393   -3.8775    0.8364 H   0  0  0  0  0  0  0  0  0  0  0  0
    1.6714   -3.9013   -0.7950 H   0  0  0  0  0  0  0  0  0  0  0  0
    1.5485   -0.0100    1.1678 C   0  0  0  0  0  0  0  0  0  0  0  0
    2.2302    0.6094    0.6232 H   0  0  0  0  0  0  0  0  0  0  0  0
    0.5846    0.0277    0.7048 H   0  0  0  0  0  0  0  0  0  0  0  0
    1.4742    0.3418    2.1755 H   0  0  0  0  0  0  0  0  0  0  0  0
  1  2  1  1  0  0  0
  2 10  1  0  0  0  0
  3  6  1  0  0  0  0
  3  1  1  0  0  0  0
  4  3  1  0  0  0  0
  5  3  1  0  0  0  0
  7  1  1  0  0  0  0
  7  8  1  0  0  0  0
  9  7  1  0  0  0  0
 10 13  1  0  0  0  0
 11 10  1  0  0  0  0
 12 10  1  0  0  0  0
M  END
