substituents_xyz/manually_generated/phenylgroup.xyz
 OpenBabel11072218293D

 11 11  0  0  0  0  0  0  0  0999 V2000
    0.4586    2.8462   -0.0012 C   0  0  0  0  0  3  0  0  0  0  0  0
   -0.9364    0.4299    0.0000 C   0  0  0  0  0  0  0  0  0  0  0  0
    0.4588    0.4299    0.0000 C   0  0  0  0  0  0  0  0  0  0  0  0
    1.1563    1.6377    0.0000 C   0  0  0  0  0  0  0  0  0  0  0  0
   -0.9362    2.8461   -0.0017 C   0  0  0  0  0  0  0  0  0  0  0  0
   -1.6338    1.6379   -0.0007 C   0  0  0  0  0  0  0  0  0  0  0  0
   -1.6114   -0.7392    0.0005 F   0  0  0  0  0  0  0  0  0  0  0  0
    1.1334   -0.7395    0.0016 F   0  0  0  0  0  0  0  0  0  0  0  0
    2.5063    1.6377    0.0007 F   0  0  0  0  0  0  0  0  0  0  0  0
   -2.9838    1.6381   -0.0009 F   0  0  0  0  0  0  0  0  0  0  0  0
   -1.6115    4.0151   -0.0028 F   0  0  0  0  0  0  0  0  0  0  0  0
  1  4  1  0  0  0  0
  2  3  1  0  0  0  0
  2  7  1  0  0  0  0
  3  4  2  0  0  0  0
  3  8  1  0  0  0  0
  4  9  1  0  0  0  0
  5  1  2  0  0  0  0
  5  6  1  0  0  0  0
  6  2  2  0  0  0  0
 10  6  1  0  0  0  0
 11  5  1  0  0  0  0
M  END
