11
substituents_xyz/manually_generated/phenylgroup.xyz
C          0.45860        2.84620       -0.00120
C         -0.93640        0.42990        0.00000
C          0.45880        0.42990        0.00000
C          1.15630        1.63770        0.00000
C         -0.93620        2.84610       -0.00170
C         -1.63380        1.63790       -0.00070
F         -1.61140       -0.73920        0.00050
F          1.13340       -0.73950        0.00160
F          2.50630        1.63770        0.00070
F         -2.98380        1.63810       -0.00090
F         -1.61150        4.01510       -0.00280
