/mnt/c/Users/Adrian/OneDrive/Desktop/Uni - Files/TU Delft/2022-2023/Thesis/JansenProject/Thesis_Project/open-bidentate-explorer/open-bidentate-explorer/Workflow1/ChemSpaX/substituents_xyz/C6H12.xyz
 OpenBabel11072218293D

 17 17  0  0  0  0  0  0  0  0999 V2000
   -1.0584   -0.2285   -0.1274 C   0  0  0  0  0  3  0  0  0  0  0  0
    0.3760   -0.3397    0.4191 C   0  0  0  0  0  0  0  0  0  0  0  0
    1.2851    0.7427   -0.1921 C   0  0  0  0  0  0  0  0  0  0  0  0
    0.6469    2.1401   -0.0694 C   0  0  0  0  0  0  0  0  0  0  0  0
   -0.8753    2.2995   -0.2497 C   0  0  0  0  0  0  0  0  0  0  0  0
   -1.6359    1.1102    0.3654 C   0  0  0  0  0  0  0  0  0  0  0  0
    0.3324   -0.2134    1.4807 H   0  0  0  0  0  0  0  0  0  0  0  0
    2.2265    0.7206    0.3160 H   0  0  0  0  0  0  0  0  0  0  0  0
    1.2606    2.9983    0.1089 H   0  0  0  0  0  0  0  0  0  0  0  0
   -1.2114    3.1979    0.2243 H   0  0  0  0  0  0  0  0  0  0  0  0
   -2.6679    1.1905    0.0944 H   0  0  0  0  0  0  0  0  0  0  0  0
   -1.0763    2.3481   -1.2995 H   0  0  0  0  0  0  0  0  0  0  0  0
   -1.5396    1.1357    1.4308 H   0  0  0  0  0  0  0  0  0  0  0  0
   -1.6468   -1.0306    0.2667 H   0  0  0  0  0  0  0  0  0  0  0  0
    0.7876   -1.2996    0.1865 H   0  0  0  0  0  0  0  0  0  0  0  0
    1.4315    0.5410   -1.2326 H   0  0  0  0  0  0  0  0  0  0  0  0
    0.6514    2.1861    0.9996 H   0  0  0  0  0  0  0  0  0  0  0  0
  1 14  1  0  0  0  0
  1  6  1  0  0  0  0
  1  2  1  0  0  0  0
  2  7  1  0  0  0  0
  3  4  1  0  0  0  0
  3  8  1  0  0  0  0
  3  2  1  0  0  0  0
  4  9  1  0  0  0  0
  4 17  1  0  0  0  0
  5  4  1  0  0  0  0
  5 10  1  0  0  0  0
  5  6  1  0  0  0  0
  6 13  1  0  0  0  0
 11  6  1  0  0  0  0
 12  5  1  0  0  0  0
 15  2  1  0  0  0  0
 16  3  1  0  0  0  0
M  END
