substituents_xyz/manually_generated/phenylgroup.xyz
 OpenBabel11072218293D

 14 14  0  0  0  0  0  0  0  0999 V2000
    0.4586    2.8462   -0.0012 C   0  0  0  0  0  3  0  0  0  0  0  0
   -0.9364    0.4299    0.0000 C   0  0  0  0  0  0  0  0  0  0  0  0
    0.4588    0.4299    0.0000 C   0  0  0  0  0  0  0  0  0  0  0  0
    1.1563    1.6377    0.0000 C   0  0  0  0  0  0  0  0  0  0  0  0
   -0.9362    2.8461   -0.0017 C   0  0  0  0  0  0  0  0  0  0  0  0
   -1.6338    1.6379   -0.0007 C   0  0  0  0  0  0  0  0  0  0  0  0
   -1.4862   -0.5224    0.0004 H   0  0  0  0  0  0  0  0  0  0  0  0
    1.0083   -0.5226    0.0013 H   0  0  0  0  0  0  0  0  0  0  0  0
    2.2560    1.6377    0.0006 H   0  0  0  0  0  0  0  0  0  0  0  0
   -2.7334    1.6381   -0.0009 H   0  0  0  0  0  0  0  0  0  0  0  0
   -1.7065    4.1796   -0.0030 C   0  0  0  0  0  0  0  0  0  0  0  0
   -2.3218    4.2352   -0.8766 H   0  0  0  0  0  0  0  0  0  0  0  0
   -2.3215    4.2371    0.8707 H   0  0  0  0  0  0  0  0  0  0  0  0
   -1.0114    4.9930   -0.0039 H   0  0  0  0  0  0  0  0  0  0  0  0
  1  4  1  0  0  0  0
  2  3  1  0  0  0  0
  2  7  1  0  0  0  0
  3  4  2  0  0  0  0
  3  8  1  0  0  0  0
  4  9  1  0  0  0  0
  5  1  2  0  0  0  0
  5  6  1  0  0  0  0
  6  2  2  0  0  0  0
 10  6  1  0  0  0  0
 11  5  1  0  0  0  0
 11 13  1  0  0  0  0
 12 11  1  0  0  0  0
 14 11  1  0  0  0  0
M  END
