13
substituents_xyz/manually_generated/phenylgroup.xyz
C          0.45860        2.84620       -0.00120
C         -0.93640        0.42990        0.00000
C          0.45880        0.42990        0.00000
C          1.15630        1.63770        0.00000
C         -0.93620        2.84610       -0.00170
C         -1.63380        1.63790       -0.00070
H         -1.48620       -0.52240        0.00040
H          1.00830       -0.52260        0.00130
H          2.25600        1.63770        0.00060
H         -1.48630        3.79840       -0.00260
N         -3.10380        1.63820       -0.00100
H         -3.43720        2.10990        0.81530
H         -3.43690        2.10940       -0.81770
