substituents_xyz/manually_generated/phenylgroup.xyz
 OpenBabel11072218293D

 13 13  0  0  0  0  0  0  0  0999 V2000
    0.4586    2.8462   -0.0012 C   0  0  0  0  0  3  0  0  0  0  0  0
   -0.9364    0.4299    0.0000 C   0  0  0  0  0  0  0  0  0  0  0  0
    0.4588    0.4299    0.0000 C   0  0  0  0  0  0  0  0  0  0  0  0
    1.1563    1.6377    0.0000 C   0  0  0  0  0  0  0  0  0  0  0  0
   -0.9362    2.8461   -0.0017 C   0  0  0  0  0  0  0  0  0  0  0  0
   -1.6338    1.6379   -0.0007 C   0  0  0  0  0  0  0  0  0  0  0  0
    1.0083   -0.5226    0.0013 H   0  0  0  0  0  0  0  0  0  0  0  0
    2.2560    1.6377    0.0006 H   0  0  0  0  0  0  0  0  0  0  0  0
   -1.4863    3.7984   -0.0026 H   0  0  0  0  0  0  0  0  0  0  0  0
   -2.7334    1.6381   -0.0009 H   0  0  0  0  0  0  0  0  0  0  0  0
   -1.6714   -0.8432    0.0006 N   0  0  0  0  0  0  0  0  0  0  0  0
   -2.2464   -0.8957    0.8170 H   0  0  0  0  0  0  0  0  0  0  0  0
   -2.2462   -0.8965   -0.8159 H   0  0  0  0  0  0  0  0  0  0  0  0
  1  4  1  0  0  0  0
  2  3  1  0  0  0  0
  2 11  1  0  0  0  0
  3  4  2  0  0  0  0
  3  7  1  0  0  0  0
  4  8  1  0  0  0  0
  5  1  2  0  0  0  0
  5  6  1  0  0  0  0
  6  2  2  0  0  0  0
  9  5  1  0  0  0  0
 10  6  1  0  0  0  0
 11 12  1  0  0  0  0
 13 11  1  0  0  0  0
M  END
