substituents_xyz/manually_generated/phenylgroup.xyz
 OpenBabel11072218293D

 17 17  0  0  0  0  0  0  0  0999 V2000
    0.4586    2.8462   -0.0012 C   0  0  0  0  0  3  0  0  0  0  0  0
   -0.9364    0.4299    0.0000 C   0  0  0  0  0  0  0  0  0  0  0  0
    0.4588    0.4299    0.0000 C   0  0  0  0  0  0  0  0  0  0  0  0
    1.1563    1.6377    0.0000 C   0  0  0  0  0  0  0  0  0  0  0  0
   -0.9362    2.8461   -0.0017 C   0  0  0  0  0  0  0  0  0  0  0  0
   -1.6338    1.6379   -0.0007 C   0  0  0  0  0  0  0  0  0  0  0  0
   -1.4862   -0.5224    0.0004 H   0  0  0  0  0  0  0  0  0  0  0  0
    2.2560    1.6377    0.0006 H   0  0  0  0  0  0  0  0  0  0  0  0
   -1.4863    3.7984   -0.0026 H   0  0  0  0  0  0  0  0  0  0  0  0
    1.2284   -0.9040    0.0018 C   0  0  0  0  0  0  0  0  0  0  0  0
    1.3096   -1.2676    1.0049 H   0  0  0  0  0  0  0  0  0  0  0  0
    0.7030   -1.6197   -0.5955 H   0  0  0  0  0  0  0  0  0  0  0  0
    2.2072   -0.7517   -0.4027 H   0  0  0  0  0  0  0  0  0  0  0  0
   -3.1738    1.6382   -0.0010 C   0  0  0  0  0  0  0  0  0  0  0  0
   -3.5304    1.1585   -0.8885 H   0  0  0  0  0  0  0  0  0  0  0  0
   -3.5307    1.1096    0.8581 H   0  0  0  0  0  0  0  0  0  0  0  0
   -3.5303    2.6467    0.0272 H   0  0  0  0  0  0  0  0  0  0  0  0
  1  4  1  0  0  0  0
  2  3  1  0  0  0  0
  2  7  1  0  0  0  0
  3 10  1  0  0  0  0
  4  3  2  0  0  0  0
  4  8  1  0  0  0  0
  5  1  2  0  0  0  0
  5  6  1  0  0  0  0
  6  2  2  0  0  0  0
  9  5  1  0  0  0  0
 10 11  1  0  0  0  0
 12 10  1  0  0  0  0
 13 10  1  0  0  0  0
 14  6  1  0  0  0  0
 14 17  1  0  0  0  0
 14 16  1  0  0  0  0
 15 14  1  0  0  0  0
M  END
