/mnt/c/Users/Adrian/OneDrive/Desktop/Uni - Files/TU Delft/2022-2023/Thesis/JansenProject/Thesis_Project/open-bidentate-explorer/open-bidentate-explorer/Workflow1/ChemSpaX/substituents_xyz/CF2OH.xyz
 OpenBabel11072218293D

  5  4  0  0  0  0  0  0  0  0999 V2000
    1.5484   -2.0322    0.0001 C   0  0  0  0  0  3  0  0  0  0  0  0
    2.0251   -1.3582    1.1677 O   0  0  0  0  0  0  0  0  0  0  0  0
    1.7052   -0.4531    1.1677 H   0  0  0  0  0  0  0  0  0  0  0  0
    1.9983   -3.3050   -0.0000 F   0  0  0  0  0  0  0  0  0  0  0  0
    1.9984   -1.3958   -1.1022 F   0  0  0  0  0  0  0  0  0  0  0  0
  1  2  1  0  0  0  0
  2  3  1  0  0  0  0
  4  1  1  0  0  0  0
  5  1  1  0  0  0  0
M  END
