/mnt/c/Users/Adrian/OneDrive/Desktop/Uni - Files/TU Delft/2022-2023/Thesis/JansenProject/Thesis_Project/open-bidentate-explorer/open-bidentate-explorer/Workflow1/ChemSpaX/substituents_xyz/CH2CH3CH3.xyz
 OpenBabel11072218293D

 10  9  0  0  0  0  0  0  0  0999 V2000
    1.3874   -0.8639    0.0000 C   0  0  0  0  0  3  0  0  0  0  0  0
    1.7441   -0.3595    0.8737 H   0  0  0  0  0  0  0  0  0  0  0  0
    1.9008   -2.3158   -0.0000 C   0  0  0  0  0  0  0  0  0  0  0  0
    1.5441   -2.8202    0.8736 H   0  0  0  0  0  0  0  0  0  0  0  0
    1.5441   -2.8202   -0.8737 H   0  0  0  0  0  0  0  0  0  0  0  0
    2.9708   -2.3158   -0.0000 H   0  0  0  0  0  0  0  0  0  0  0  0
   -0.1526   -0.8639    0.0000 C   0  0  0  0  0  0  0  0  0  0  0  0
   -0.5092   -1.3683    0.8737 H   0  0  0  0  0  0  0  0  0  0  0  0
   -0.5092    0.1450    0.0000 H   0  0  0  0  0  0  0  0  0  0  0  0
   -0.5092   -1.3683   -0.8737 H   0  0  0  0  0  0  0  0  0  0  0  0
  1  2  1  0  0  0  0
  3  6  1  0  0  0  0
  3  1  1  0  0  0  0
  3  4  1  0  0  0  0
  5  3  1  0  0  0  0
  7  1  1  0  0  0  0
  7  9  1  0  0  0  0
  7  8  1  0  0  0  0
 10  7  1  0  0  0  0
M  END
