substituents_xyz/manually_generated\CH2CH3CH3.xyz
 OpenBabel11072218293D

 10  9  0  0  0  0  0  0  0  0999 V2000
    1.3874   -0.8639    0.0000 C   0  0  0  0  0  3  0  0  0  0  0  0
    1.7441   -0.3595    0.8737 H   0  0  0  0  0  0  0  0  0  0  0  0
    1.9008   -2.3158   -0.0000 C   0  0  0  0  0  0  0  0  0  0  0  0
   -0.1526   -0.8639    0.0000 C   0  0  0  0  0  0  0  0  0  0  0  0
    1.4507   -2.9522    1.1022 F   0  0  0  0  0  0  0  0  0  0  0  0
    1.4508   -2.9522   -1.1023 F   0  0  0  0  0  0  0  0  0  0  0  0
    3.2508   -2.3158    0.0000 F   0  0  0  0  0  0  0  0  0  0  0  0
   -0.6025   -1.5003    1.1023 F   0  0  0  0  0  0  0  0  0  0  0  0
   -0.6025   -1.5003   -1.1023 F   0  0  0  0  0  0  0  0  0  0  0  0
   -0.6025    0.4089    0.0000 F   0  0  0  0  0  0  0  0  0  0  0  0
  1  3  1  0  0  0  0
  1  4  1  0  0  0  0
  1  2  1  0  0  0  0
  3  7  1  0  0  0  0
  3  5  1  0  0  0  0
  4 10  1  0  0  0  0
  4  8  1  0  0  0  0
  6  3  1  0  0  0  0
  9  4  1  0  0  0  0
M  END
