7
substituents_xyz/manually_generated\CH2CH3.xyz
C         -2.90600       -0.71000        0.00000
C         -3.41940        0.74190       -0.00000
H         -1.83600       -0.71000       -0.00000
H         -3.26270       -1.21440        0.87370
F         -2.96940        1.37830        1.10230
F         -4.76940        0.74190        0.00000
F         -2.96940        1.37830       -1.10230
