/mnt/c/Users/Adrian/OneDrive/Desktop/Uni - Files/TU Delft/2022-2023/Thesis/JansenProject/Thesis_Project/open-bidentate-explorer/open-bidentate-explorer/Workflow1/ChemSpaX/substituents_xyz/CH2ONH2.xyz
 OpenBabel11072218293D

  7  6  0  0  0  0  0  0  0  0999 V2000
    1.5484   -2.0322    0.0001 C   0  0  0  0  0  3  0  0  0  0  0  0
    1.9050   -3.0411   -0.0000 H   0  0  0  0  0  0  0  0  0  0  0  0
    1.9051   -1.5278   -0.8736 H   0  0  0  0  0  0  0  0  0  0  0  0
    2.0251   -1.3582    1.1677 O   0  0  0  0  0  0  0  0  0  0  0  0
    1.5719   -0.0760    1.1678 N   0  0  0  0  0  0  0  0  0  0  0  0
    0.9602    0.0614    1.9469 H   0  0  0  0  0  0  0  0  0  0  0  0
    2.3472    0.5517    1.2380 H   0  0  0  0  0  0  0  0  0  0  0  0
  1  4  1  0  0  0  0
  2  1  1  0  0  0  0
  3  1  1  0  0  0  0
  4  5  1  0  0  0  0
  5  7  1  0  0  0  0
  5  6  1  0  0  0  0
M  END
