/mnt/c/Users/Adrian/OneDrive/Desktop/Uni - Files/TU Delft/2022-2023/Thesis/JansenProject/Thesis_Project/open-bidentate-explorer/open-bidentate-explorer/Workflow1/ChemSpaX/substituents_xyz/CH4N2ONH2.xyz
 OpenBabel11072218293D

 11 10  0  0  0  0  0  0  0  0999 V2000
    1.5484   -2.0322    0.0001 C   0  0  0  0  0  3  0  0  0  0  0  0
    2.0251   -1.3582    1.1677 O   0  0  0  0  0  0  0  0  0  0  0  0
    2.0383   -3.4182   -0.0001 N   0  0  0  0  0  0  0  0  0  0  0  0
    1.7393   -3.8775    0.8364 H   0  0  0  0  0  0  0  0  0  0  0  0
    1.6714   -3.9013   -0.7950 H   0  0  0  0  0  0  0  0  0  0  0  0
    2.0384   -1.3392   -1.2002 N   0  0  0  0  0  0  0  0  0  0  0  0
    1.7798   -1.8592   -2.0142 H   0  0  0  0  0  0  0  0  0  0  0  0
    1.6343   -0.4256   -1.2459 H   0  0  0  0  0  0  0  0  0  0  0  0
    1.5719   -0.0760    1.1678 N   0  0  0  0  0  0  0  0  0  0  0  0
    0.8108    0.0086    1.8109 H   0  0  0  0  0  0  0  0  0  0  0  0
    2.3109    0.5388    1.4432 H   0  0  0  0  0  0  0  0  0  0  0  0
  1  2  1  0  0  0  0
  2  9  1  0  0  0  0
  3  1  1  0  0  0  0
  3  4  1  0  0  0  0
  5  3  1  0  0  0  0
  6  1  1  0  0  0  0
  7  6  1  0  0  0  0
  8  6  1  0  0  0  0
  9 11  1  0  0  0  0
  9 10  1  0  0  0  0
M  END
