9

 C                  1.54840760   -2.03222657    0.00005117
 O                  2.02513834   -1.35822114    1.16767461
 H                  1.70518693   -0.45310729    1.16774228
 N                  2.03833320   -3.41818216   -0.00005246
 H                  1.73925677   -3.87746724    0.83637477
 H                  1.67143276   -3.90128212   -0.79503579
 N                  2.03841615   -1.33920863   -1.20016454
 H                  1.77982365   -1.85920375   -2.01424991
 H                  1.63432591   -0.42563320   -1.24589221