10

 C                  1.54840760   -2.03222657    0.00005117
 H                  1.90508049   -1.52778494   -0.87357523
 O                  2.02513834   -1.35822114    1.16767461
 C                  2.06166299   -3.48418005   -0.00005739
 H                  1.70453644   -3.98873328    0.87331919
 H                  1.70527197   -3.98830147   -0.87398361
 H                  3.13166287   -3.48437573    0.00039298
 N                  1.57187384   -0.07597651    1.16777048
 H                  0.97063565    0.06503588    1.95429965
 H                  2.34804133    0.55197472    1.22470264