25

C         -0.72210       24.16061       -2.35980
C         -0.01663       22.92362       -2.89240
H          1.01077       22.90330       -2.51064
H         -0.52240       22.02901       -2.51084
C         -0.00343       22.90081       -4.42064
H          0.49984       23.79971       -4.79715
H         -1.03326       22.92546       -4.79735
C          0.70707       21.65498       -4.95233
H          1.73689       21.63056       -4.57565
H          0.20361       20.75621       -4.57585
C          0.72035       21.63206       -6.48172
H          1.22381       22.53083       -6.85820
H         -0.30947       21.65647       -6.85840
C          1.43084       20.38623       -7.01340
H          2.46068       20.36157       -6.63670
H          0.92758       19.48732       -6.63690
C          1.44405       20.36342       -8.54164
H          1.94982       21.25802       -8.92320
H          0.41665       20.38373       -8.92340
H         -0.22123       25.07368       -2.69710
H         -1.76290       24.19455       -2.69730
C          2.14951       19.12642       -9.07425
H          3.19032       19.09249       -8.73674
H          2.14730       19.13055      -10.16873
H          1.64865       18.21335       -8.73694