16

C         -0.00721       22.91006       -2.89291
H          1.01185       22.92392       -2.49334
H         -0.52301       22.03295       -2.48921
C          0.00385       22.88396       -4.41302
H          0.49761       23.78944       -4.78455
H         -1.02879       22.90338       -4.78044
C          0.72180       21.64467       -4.94674
H          1.75288       21.62768       -4.57292
H          0.22673       20.74177       -4.56882
C          0.73065       21.62235       -6.47501
H          1.22838       22.52092       -6.85781
H         -0.29802       21.63487       -6.85370
C          1.44401       20.39096       -7.01013
H          2.48605       20.36493       -6.67576
H          1.43848       20.39541       -8.10460
H          0.95119       19.47396       -6.67163