6

 N                 -1.64516128   -0.58064528    0.00000000
 H                 -1.31033034   -0.10871740   -0.81558096
 C                 -1.15517819   -1.96658055    0.00000000
 H                 -1.51344535   -2.47154229    0.87267307
 H                 -1.51025500   -2.47041450   -0.87462667
 H                 -0.08517997   -1.96659444    0.00195367