/mnt/c/Users/Adrian/OneDrive/Desktop/Uni - Files/TU Delft/2022-2023/Thesis/JansenProject/Thesis_Project/open-bidentate-explorer/open-bidentate-explorer/Workflow1/ChemSpaX/substituents_xyz/NHCH3.xyz
 OpenBabel11072218293D

  6  5  0  0  0  0  0  0  0  0999 V2000
   -1.6452   -0.5806    0.0000 N   0  0  0  0  0  2  0  0  0  0  0  0
   -1.3103   -0.1087   -0.8156 H   0  0  0  0  0  0  0  0  0  0  0  0
   -1.1552   -1.9666    0.0000 C   0  0  0  0  0  0  0  0  0  0  0  0
   -1.5134   -2.4715    0.8727 H   0  0  0  0  0  0  0  0  0  0  0  0
   -1.5103   -2.4704   -0.8746 H   0  0  0  0  0  0  0  0  0  0  0  0
   -0.0852   -1.9666    0.0020 H   0  0  0  0  0  0  0  0  0  0  0  0
  1  3  1  0  0  0  0
  2  1  1  0  0  0  0
  3  6  1  0  0  0  0
  3  4  1  0  0  0  0
  5  3  1  0  0  0  0
M  END
