/mnt/c/Users/Adrian/OneDrive/Desktop/Uni - Files/TU Delft/2022-2023/Thesis/JansenProject/Thesis_Project/open-bidentate-explorer/open-bidentate-explorer/Workflow1/ChemSpaX/substituents_xyz/1-octanol.xyz
 OpenBabel11072218293D

 26 25  0  0  0  0  0  0  0  0999 V2000
   -0.7237   24.1660   -2.3632 C   0  0  0  0  0  3  0  0  0  0  0  0
   -0.0180   22.9276   -2.8921 C   0  0  0  0  0  0  0  0  0  0  0  0
    1.0090   22.9080   -2.5093 H   0  0  0  0  0  0  0  0  0  0  0  0
   -0.5244   22.0340   -2.5088 H   0  0  0  0  0  0  0  0  0  0  0  0
   -0.0034   22.9010   -4.4203 C   0  0  0  0  0  0  0  0  0  0  0  0
    0.5004   23.7988   -4.7985 H   0  0  0  0  0  0  0  0  0  0  0  0
   -1.0329   22.9249   -4.7980 H   0  0  0  0  0  0  0  0  0  0  0  0
    0.7073   21.6537   -4.9482 C   0  0  0  0  0  0  0  0  0  0  0  0
    1.7368   21.6300   -4.5705 H   0  0  0  0  0  0  0  0  0  0  0  0
    0.2033   20.7560   -4.5700 H   0  0  0  0  0  0  0  0  0  0  0  0
    0.7220   21.6270   -6.4775 C   0  0  0  0  0  0  0  0  0  0  0  0
    1.2260   22.5247   -6.8557 H   0  0  0  0  0  0  0  0  0  0  0  0
   -0.3075   21.6507   -6.8552 H   0  0  0  0  0  0  0  0  0  0  0  0
    1.4327   20.3797   -7.0054 C   0  0  0  0  0  0  0  0  0  0  0  0
    2.4621   20.3559   -6.6278 H   0  0  0  0  0  0  0  0  0  0  0  0
    0.9287   19.4820   -6.6272 H   0  0  0  0  0  0  0  0  0  0  0  0
    1.4474   20.3529   -8.5322 C   0  0  0  0  0  0  0  0  0  0  0  0
    1.9434   21.2501   -8.9232 H   0  0  0  0  0  0  0  0  0  0  0  0
    0.4224   20.3833   -8.9226 H   0  0  0  0  0  0  0  0  0  0  0  0
   -0.2223   25.0782   -2.7023 H   0  0  0  0  0  0  0  0  0  0  0  0
   -1.7642   24.1994   -2.7018 H   0  0  0  0  0  0  0  0  0  0  0  0
    2.1531   19.1143   -9.0657 C   0  0  0  0  0  0  0  0  0  0  0  0
    3.1957   19.0851   -8.7334 H   0  0  0  0  0  0  0  0  0  0  0  0
    1.6471   18.2025   -8.7328 H   0  0  0  0  0  0  0  0  0  0  0  0
    2.1324   19.1498  -10.4860 O   0  0  0  0  0  0  0  0  0  0  0  0
    2.5884   18.3496  -10.7979 H   0  0  0  0  0  0  0  0  0  0  0  0
  2  3  1  0  0  0  0
  2  4  1  0  0  0  0
  2  1  1  0  0  0  0
  5  2  1  0  0  0  0
  6  5  1  0  0  0  0
  7  5  1  0  0  0  0
  8  9  1  0  0  0  0
  8 10  1  0  0  0  0
  8  5  1  0  0  0  0
 11  8  1  0  0  0  0
 12 11  1  0  0  0  0
 13 11  1  0  0  0  0
 14 15  1  0  0  0  0
 14 16  1  0  0  0  0
 14 11  1  0  0  0  0
 17 14  1  0  0  0  0
 18 17  1  0  0  0  0
 19 17  1  0  0  0  0
 20  1  1  0  0  0  0
 21  1  1  0  0  0  0
 22 23  1  0  0  0  0
 22 24  1  0  0  0  0
 22 17  1  0  0  0  0
 25 22  1  0  0  0  0
 26 25  1  0  0  0  0
M  END
