22

 C                 -0.69738200    1.20797600   -0.00068200
 C                  0.00000000    0.00000000    0.00000000
 C                  1.39516000    0.00000000    0.00000000
 C                  2.09269800    1.20775100    0.00000000
 C                  1.39504400    2.41626000   -0.00119900
 C                  0.00021900    2.41618200   -0.00167800
 H                 -0.54975900   -0.95231700    0.00045000
 H                 -0.54990300    3.36846300   -0.00263100
 C                  2.16554807    3.74964797   -0.00128162
 H                  2.36452092    4.04666588    1.00722726
 H                  3.08996674    3.62736883   -0.52606533
 H                  1.57750652    4.50135371   -0.48506423
 C                  2.16471235   -1.33393620    0.00184158
 H                  2.77553053   -1.39452653   -0.87458866
 H                  2.78415944   -1.38713627    0.87267741
 H                  1.46913578   -2.14697125    0.00871552
 O                  3.52269776    1.20785503    0.00082444
 C                  3.99926392    1.21378044    1.34906388
 H                  4.61314265    0.35308384    1.51415253
 H                  4.57397989    2.09993703    1.52031822
 H                  3.16726048    1.19275415    2.02154300