18

 C                  1.15618264   -0.75961316    1.34165188
 C                  1.15606664    1.65664684    1.34045288
 C                 -0.23897736   -0.75961316    1.34165188
 C                  1.85372064    0.44813784    1.34165188
 C                 -0.23875836    1.65656884    1.33997388
 C                 -0.93635936    0.44836284    1.34096988
 H                 -0.78873636   -1.71193016    1.34210188
 H                  2.95340064    0.44821784    1.34228588
 H                 -0.78888036    2.60884984    1.33902088
 C                 -2.47635931    0.44861913    1.34071779
 H                 -2.83296513    1.31716331    1.85390712
 H                 -2.83285882    0.45892135    0.33190564
 H                 -2.83325351   -0.43004925    1.83616549
 C                  1.92657072    2.99003480    1.34037026
 H                  1.64060334    3.56716211    0.48594254
 H                  1.69657540    3.53492661    2.23205130
 H                  2.97788345    2.79446016    1.30305953