17
substituents_xyz/manually_generated\C6H12.xyz
C         -1.05840       -0.22850       -0.12740
C          0.37600       -0.33970        0.41910
C          1.28510        0.74270       -0.19210
C          0.64690        2.14010       -0.06940
C         -0.87530        2.29950       -0.24970
C         -1.63590        1.11020        0.36540
F          0.32100       -0.18030        1.75850
F          0.89530       -1.55080        0.12560
F          2.47290        0.71480        0.44900
F         -1.80080       -1.24050        0.36980
F         -2.93790        1.21150        0.02350
F         -1.51440        1.14240        1.70950
F          0.65260        2.19810        1.27930
F          1.42120        3.22290        0.15560
F         -1.29940        3.43310        0.34840
F         -1.12890        2.36080       -1.57420
F          1.46980        0.48820       -1.50500
