17

C         -1.05836       -0.22848       -0.12738
C          0.37603       -0.33966        0.41908
C          1.28506        0.74271       -0.19208
C          0.64690        2.14010       -0.06945
C         -0.87530        2.29947       -0.24969
C         -1.63594        1.11017        0.36542
H          0.33241       -0.21336        1.48070
H          2.22648        0.72059        0.31601
H          1.26056        2.99829        0.10892
H         -1.21140        3.19794        0.22433
H         -2.66792        1.19050        0.09440
H         -1.07632        2.34807       -1.29951
H         -1.53965        1.13565        1.43078
H         -1.64684       -1.03056        0.26666
H          0.78762       -1.29957        0.18655
H          1.43146        0.54096       -1.23264
H          0.65143        2.18611        0.99955