13
substituents_xyz/manually_generated\CCH3CH3CH3.xyz
C          1.54840       -2.03220        0.00010
C          2.06170       -3.48420       -0.00010
C          2.06170       -1.30620       -1.25730
C          2.06180       -1.30640        1.25750
F          1.66260       -1.97700       -2.35880
F          3.41030       -1.25270       -1.22700
F          1.56230       -0.05230       -1.28850
F          1.61760       -0.03160        1.25410
F          3.41180       -1.31250        1.26090
F          1.60610       -1.93880        2.35970
F          3.41170       -3.48450        0.00050
F          1.61100       -4.12070        1.10180
F          1.61200       -4.12020       -1.10270
