/mnt/c/Users/Adrian/OneDrive/Desktop/Uni - Files/TU Delft/2022-2023/Thesis/JansenProject/Thesis_Project/open-bidentate-explorer/open-bidentate-explorer/Workflow1/ChemSpaX/substituents_xyz/CCH3CH3CH3.xyz
 OpenBabel11072218293D

 13 12  0  0  0  0  0  0  0  0999 V2000
    1.5484   -2.0322    0.0001 C   0  0  0  0  0  3  0  0  0  0  0  0
    2.0617   -3.4842   -0.0001 C   0  0  0  0  0  0  0  0  0  0  0  0
    1.7045   -3.9887    0.8733 H   0  0  0  0  0  0  0  0  0  0  0  0
    1.7053   -3.9883   -0.8740 H   0  0  0  0  0  0  0  0  0  0  0  0
    3.1317   -3.4844    0.0004 H   0  0  0  0  0  0  0  0  0  0  0  0
    2.0617   -1.3062   -1.2573 C   0  0  0  0  0  0  0  0  0  0  0  0
    1.7454   -1.8379   -2.1303 H   0  0  0  0  0  0  0  0  0  0  0  0
    1.6659   -0.3124   -1.2820 H   0  0  0  0  0  0  0  0  0  0  0  0
    3.1306   -1.2638   -1.2333 H   0  0  0  0  0  0  0  0  0  0  0  0
    2.0618   -1.3064    1.2575 C   0  0  0  0  0  0  0  0  0  0  0  0
    1.7097   -0.2960    1.2548 H   0  0  0  0  0  0  0  0  0  0  0  0
    1.7006   -1.8076    2.1311 H   0  0  0  0  0  0  0  0  0  0  0  0
    3.1318   -1.3112    1.2602 H   0  0  0  0  0  0  0  0  0  0  0  0
  1 10  1  0  0  0  0
  2  1  1  0  0  0  0
  2  5  1  0  0  0  0
  2  3  1  0  0  0  0
  4  2  1  0  0  0  0
  6  9  1  0  0  0  0
  6  1  1  0  0  0  0
  7  6  1  0  0  0  0
  8  6  1  0  0  0  0
 10 13  1  0  0  0  0
 10 12  1  0  0  0  0
 11 10  1  0  0  0  0
M  END
