/mnt/c/Users/Adrian/OneDrive/Desktop/Uni - Files/TU Delft/2022-2023/Thesis/JansenProject/Thesis_Project/open-bidentate-explorer/open-bidentate-explorer/Workflow1/ChemSpaX/substituents_xyz/CCH3CH3OH.xyz
 OpenBabel11072218293D

 11 10  0  0  0  0  0  0  0  0999 V2000
    1.5484   -2.0322    0.0001 C   0  0  0  0  0  3  0  0  0  0  0  0
    2.0251   -1.3582    1.1677 O   0  0  0  0  0  0  0  0  0  0  0  0
    1.7052   -0.4531    1.1677 H   0  0  0  0  0  0  0  0  0  0  0  0
    2.0617   -3.4842   -0.0001 C   0  0  0  0  0  0  0  0  0  0  0  0
    1.7045   -3.9887    0.8733 H   0  0  0  0  0  0  0  0  0  0  0  0
    1.7053   -3.9883   -0.8740 H   0  0  0  0  0  0  0  0  0  0  0  0
    3.1317   -3.4844    0.0004 H   0  0  0  0  0  0  0  0  0  0  0  0
    2.0617   -1.3062   -1.2573 C   0  0  0  0  0  0  0  0  0  0  0  0
    1.7454   -1.8379   -2.1303 H   0  0  0  0  0  0  0  0  0  0  0  0
    1.6659   -0.3124   -1.2820 H   0  0  0  0  0  0  0  0  0  0  0  0
    3.1306   -1.2638   -1.2333 H   0  0  0  0  0  0  0  0  0  0  0  0
  1  2  1  0  0  0  0
  2  3  1  0  0  0  0
  4  1  1  0  0  0  0
  4  7  1  0  0  0  0
  4  5  1  0  0  0  0
  6  4  1  0  0  0  0
  8 11  1  0  0  0  0
  8  1  1  0  0  0  0
  9  8  1  0  0  0  0
 10  8  1  0  0  0  0
M  END
