11

 C                  1.54840760   -2.03222657    0.00005117
 O                  2.02513834   -1.35822114    1.16767461
 H                  1.70518693   -0.45310729    1.16774228
 C                  2.06166299   -3.48418005   -0.00005739
 H                  1.70453644   -3.98873328    0.87331919
 H                  1.70527197   -3.98830147   -0.87398361
 H                  3.13166287   -3.48437573    0.00039298
 C                  2.06174989   -1.30620777   -1.25731767
 H                  1.74542964   -1.83791953   -2.13031487
 H                  1.66585323   -0.31244843   -1.28197926
 H                  3.13063959   -1.26381395   -1.23328491