/mnt/c/Users/Adrian/OneDrive/Desktop/Uni - Files/TU Delft/2022-2023/Thesis/JansenProject/Thesis_Project/open-bidentate-explorer/open-bidentate-explorer/Workflow1/ChemSpaX/substituents_xyz/CClF2.xyz
 OpenBabel11072218293D

  4  3  0  0  0  0  0  0  0  0999 V2000
   -2.0663    1.2669    0.0000 C   0  0  0  0  0  3  0  0  0  0  0  0
   -1.4797    2.0965   -1.4370 Cl  0  0  0  0  0  0  0  0  0  0  0  0
   -1.6163   -0.0059    0.0000 F   0  0  0  0  0  0  0  0  0  0  0  0
   -3.4163    1.2669    0.0000 F   0  0  0  0  0  0  0  0  0  0  0  0
  1  3  1  0  0  0  0
  1  4  1  0  0  0  0
  2  1  1  0  0  0  0
M  END
