substituents_xyz/manually_generated\CH2CH3.xyz
 OpenBabel11072218293D

  7  6  0  0  0  0  0  0  0  0999 V2000
   -2.9060   -0.7100    0.0000 C   0  0  0  0  0  3  0  0  0  0  0  0
   -3.4194    0.7419   -0.0000 C   0  0  0  0  0  0  0  0  0  0  0  0
   -1.8360   -0.7100   -0.0000 H   0  0  0  0  0  0  0  0  0  0  0  0
   -3.2627   -1.2144    0.8737 H   0  0  0  0  0  0  0  0  0  0  0  0
   -2.9694    1.3783    1.1023 F   0  0  0  0  0  0  0  0  0  0  0  0
   -4.7694    0.7419    0.0000 F   0  0  0  0  0  0  0  0  0  0  0  0
   -2.9694    1.3783   -1.1023 F   0  0  0  0  0  0  0  0  0  0  0  0
  1  2  1  0  0  0  0
  1  3  1  0  0  0  0
  1  4  1  0  0  0  0
  2  6  1  0  0  0  0
  2  5  1  0  0  0  0
  7  2  1  0  0  0  0
M  END
