/mnt/c/Users/Adrian/OneDrive/Desktop/Uni - Files/TU Delft/2022-2023/Thesis/JansenProject/Thesis_Project/open-bidentate-explorer/open-bidentate-explorer/Workflow1/ChemSpaX/substituents_xyz/CH2CH3.xyz
 OpenBabel11072218293D

  7  6  0  0  0  0  0  0  0  0999 V2000
   -2.9060   -0.7100    0.0000 C   0  0  0  0  0  3  0  0  0  0  0  0
   -3.4194    0.7419   -0.0000 C   0  0  0  0  0  0  0  0  0  0  0  0
   -3.0627    1.2463    0.8737 H   0  0  0  0  0  0  0  0  0  0  0  0
   -3.0627    1.2463   -0.8737 H   0  0  0  0  0  0  0  0  0  0  0  0
   -4.4894    0.7419    0.0000 H   0  0  0  0  0  0  0  0  0  0  0  0
   -1.8360   -0.7100   -0.0000 H   0  0  0  0  0  0  0  0  0  0  0  0
   -3.2627   -1.2144    0.8737 H   0  0  0  0  0  0  0  0  0  0  0  0
  1  7  1  0  0  0  0
  2  1  1  0  0  0  0
  2  5  1  0  0  0  0
  2  3  1  0  0  0  0
  4  2  1  0  0  0  0
  6  1  1  0  0  0  0
M  END
