/mnt/c/Users/Adrian/OneDrive/Desktop/Uni - Files/TU Delft/2022-2023/Thesis/JansenProject/Thesis_Project/open-bidentate-explorer/open-bidentate-explorer/Workflow1/ChemSpaX/substituents_xyz/CH4N2OH.xyz
 OpenBabel11072218293D

  9  8  0  0  0  0  0  0  0  0999 V2000
    1.5484   -2.0322    0.0001 C   0  0  0  0  0  3  0  0  0  0  0  0
    2.0251   -1.3582    1.1677 O   0  0  0  0  0  0  0  0  0  0  0  0
    1.7052   -0.4531    1.1677 H   0  0  0  0  0  0  0  0  0  0  0  0
    2.0383   -3.4182   -0.0001 N   0  0  0  0  0  0  0  0  0  0  0  0
    1.7393   -3.8775    0.8364 H   0  0  0  0  0  0  0  0  0  0  0  0
    1.6714   -3.9013   -0.7950 H   0  0  0  0  0  0  0  0  0  0  0  0
    2.0384   -1.3392   -1.2002 N   0  0  0  0  0  0  0  0  0  0  0  0
    1.7798   -1.8592   -2.0142 H   0  0  0  0  0  0  0  0  0  0  0  0
    1.6343   -0.4256   -1.2459 H   0  0  0  0  0  0  0  0  0  0  0  0
  1  2  1  0  0  0  0
  2  3  1  0  0  0  0
  4  1  1  0  0  0  0
  4  5  1  0  0  0  0
  6  4  1  0  0  0  0
  7  1  1  0  0  0  0
  8  7  1  0  0  0  0
  9  7  1  0  0  0  0
M  END
