/mnt/c/Users/Adrian/OneDrive/Desktop/Uni - Files/TU Delft/2022-2023/Thesis/JansenProject/Thesis_Project/open-bidentate-explorer/open-bidentate-explorer/Workflow1/ChemSpaX/substituents_xyz/CHO2H2.xyz
 OpenBabel11072218293D

  6  5  0  0  0  0  0  0  0  0999 V2000
   -2.0663    1.2669    0.0000 C   0  0  0  0  0  3  0  0  0  0  0  0
   -1.7097    1.7713   -0.8737 H   0  0  0  0  0  0  0  0  0  0  0  0
   -1.5897    1.9410    1.1676 O   0  0  0  0  0  0  0  0  0  0  0  0
   -1.0563    1.3379    1.6905 H   0  0  0  0  0  0  0  0  0  0  0  0
   -3.4963    1.2669    0.0000 O   0  0  0  0  0  0  0  0  0  0  0  0
   -3.8168    0.7019   -0.7069 H   0  0  0  0  0  0  0  0  0  0  0  0
  1  5  1  0  0  0  0
  1  3  1  0  0  0  0
  2  1  1  0  0  0  0
  3  4  1  0  0  0  0
  6  5  1  0  0  0  0
M  END
