/mnt/c/Users/Adrian/OneDrive/Desktop/Uni - Files/TU Delft/2022-2023/Thesis/JansenProject/Thesis_Project/open-bidentate-explorer/open-bidentate-explorer/Workflow1/ChemSpaX/substituents_xyz/CO3H3.xyz
 OpenBabel11072218293D

  7  6  0  0  0  0  0  0  0  0999 V2000
   -2.0663    1.2669    0.0000 C   0  0  0  0  0  3  0  0  0  0  0  0
   -1.5897    1.9410    1.1676 O   0  0  0  0  0  0  0  0  0  0  0  0
   -1.0563    1.3379    1.6905 H   0  0  0  0  0  0  0  0  0  0  0  0
   -3.4963    1.2669    0.0000 O   0  0  0  0  0  0  0  0  0  0  0  0
   -3.8168    0.7019   -0.7069 H   0  0  0  0  0  0  0  0  0  0  0  0
   -1.5897    1.9410   -1.1676 O   0  0  0  0  0  0  0  0  0  0  0  0
   -1.0280    1.3486   -1.6728 H   0  0  0  0  0  0  0  0  0  0  0  0
  1  4  1  0  0  0  0
  1  2  1  0  0  0  0
  2  3  1  0  0  0  0
  5  4  1  0  0  0  0
  6  1  1  0  0  0  0
  7  6  1  0  0  0  0
M  END
