9

 C                  0.45498840    2.03040933   -0.58489184
 C                 -0.18526160   -0.11305667   -0.58480284
 C                  1.19432040   -0.11305667   -0.58480284
 C                  1.60905440    1.27431033   -0.58480284
 O                 -0.66451360    1.19762033   -0.58502484
 H                 -0.95890760   -0.87426167   -0.58481384
 H                  1.85883840   -0.97175267   -0.58469784
 H                  2.63564140    1.62780833   -0.58480684

 