13

C         -0.00337       22.89869       -2.89411
H          1.01663       22.90673       -2.49675
H         -0.52033       22.01936       -2.49675
C          0.00420       22.88557       -4.41438
H          0.49913       23.79307       -4.77945
H         -1.02917       22.91070       -4.77945
C          0.71753       21.65006       -4.95981
H          1.75090       21.62493       -4.59474
H          0.22260       20.74256       -4.59474
C          0.72510       21.63694       -6.48008
H          1.24206       22.51626       -6.87743
H         -0.29490       21.62890       -6.87743
H          1.24034       20.74451       -6.84887