/mnt/c/Users/Adrian/OneDrive/Desktop/Uni - Files/TU Delft/2022-2023/Thesis/JansenProject/Thesis_Project/open-bidentate-explorer/open-bidentate-explorer/Workflow1/ChemSpaX/substituents_xyz/n-octane.xyz
 OpenBabel11072218293D

 25 24  0  0  0  0  0  0  0  0999 V2000
   -0.7221   24.1606   -2.3598 C   0  0  0  0  0  3  0  0  0  0  0  0
   -0.0166   22.9236   -2.8924 C   0  0  0  0  0  0  0  0  0  0  0  0
    1.0108   22.9033   -2.5106 H   0  0  0  0  0  0  0  0  0  0  0  0
   -0.5224   22.0290   -2.5108 H   0  0  0  0  0  0  0  0  0  0  0  0
   -0.0034   22.9008   -4.4206 C   0  0  0  0  0  0  0  0  0  0  0  0
    0.4998   23.7997   -4.7972 H   0  0  0  0  0  0  0  0  0  0  0  0
   -1.0333   22.9255   -4.7973 H   0  0  0  0  0  0  0  0  0  0  0  0
    0.7071   21.6550   -4.9523 C   0  0  0  0  0  0  0  0  0  0  0  0
    1.7369   21.6306   -4.5757 H   0  0  0  0  0  0  0  0  0  0  0  0
    0.2036   20.7562   -4.5758 H   0  0  0  0  0  0  0  0  0  0  0  0
    0.7204   21.6321   -6.4817 C   0  0  0  0  0  0  0  0  0  0  0  0
    1.2238   22.5308   -6.8582 H   0  0  0  0  0  0  0  0  0  0  0  0
   -0.3095   21.6565   -6.8584 H   0  0  0  0  0  0  0  0  0  0  0  0
    1.4308   20.3862   -7.0134 C   0  0  0  0  0  0  0  0  0  0  0  0
    2.4607   20.3616   -6.6367 H   0  0  0  0  0  0  0  0  0  0  0  0
    0.9276   19.4873   -6.6369 H   0  0  0  0  0  0  0  0  0  0  0  0
    1.4441   20.3634   -8.5416 C   0  0  0  0  0  0  0  0  0  0  0  0
    1.9498   21.2580   -8.9232 H   0  0  0  0  0  0  0  0  0  0  0  0
    0.4167   20.3837   -8.9234 H   0  0  0  0  0  0  0  0  0  0  0  0
   -0.2212   25.0737   -2.6971 H   0  0  0  0  0  0  0  0  0  0  0  0
   -1.7629   24.1945   -2.6973 H   0  0  0  0  0  0  0  0  0  0  0  0
    2.1495   19.1264   -9.0742 C   0  0  0  0  0  0  0  0  0  0  0  0
    3.1903   19.0925   -8.7367 H   0  0  0  0  0  0  0  0  0  0  0  0
    2.1473   19.1305  -10.1687 H   0  0  0  0  0  0  0  0  0  0  0  0
    1.6486   18.2133   -8.7369 H   0  0  0  0  0  0  0  0  0  0  0  0
  2  4  1  0  0  0  0
  2  3  1  0  0  0  0
  2  1  1  0  0  0  0
  5  2  1  0  0  0  0
  6  5  1  0  0  0  0
  7  5  1  0  0  0  0
  8 10  1  0  0  0  0
  8  9  1  0  0  0  0
  8  5  1  0  0  0  0
 11  8  1  0  0  0  0
 12 11  1  0  0  0  0
 13 11  1  0  0  0  0
 14 16  1  0  0  0  0
 14 15  1  0  0  0  0
 14 11  1  0  0  0  0
 17 14  1  0  0  0  0
 18 17  1  0  0  0  0
 19 17  1  0  0  0  0
 20  1  1  0  0  0  0
 21  1  1  0  0  0  0
 22 25  1  0  0  0  0
 22 23  1  0  0  0  0
 22 17  1  0  0  0  0
 24 22  1  0  0  0  0
M  END
