18

 C                  2.09961900    3.67371300    0.00048500
 C                  0.00000000    0.00000000    0.00000000
 C                  1.37280100    0.00000000    0.00000000
 C                  2.09473900    1.22512100    0.00000000
 C                  1.37686900    2.44898700    0.00037000
 C                 -0.04454700    2.41961400    0.00052400
 C                 -0.71605200    1.22163900    0.00023400
 H                  4.06381200    0.30015600   -0.00024300
 H                 -0.56073100   -0.94634600   -0.00008000
 H                  1.93759000   -0.94432200   -0.00022800
 C                  3.51646600    1.25466400   -0.00026300
 H                 -0.59178800    3.37407000    0.00060600
 H                 -1.81568900    1.19527200    0.00033600
 C                  3.47248000    3.67378100    0.00021200
 C                  4.18849200    2.45188900   -0.00024700
 H                  4.03317200    4.62011200    0.00003400
 H                  5.28812000    2.47835400   -0.00042900
