15

 C                  1.39504400    2.41626000   -0.00119900
 C                  0.00000000    0.00000000    0.00000000
 C                  1.39516000    0.00000000    0.00000000
 C                  2.09269800    1.20775100    0.00000000
 C                  0.00021900    2.41618200   -0.00167800
 C                 -0.69738200    1.20797600   -0.00068200
 H                  1.94466800   -0.95251300    0.00131500
 H                  3.19237800    1.20783100    0.00063400
 H                 -0.54990300    3.36846300   -0.00263100
 H                 -1.79698600    1.20815900   -0.00086200
 C                 -0.76993536   -1.33371629    0.00063022
 F                 -0.98760121   -1.72705970    1.27358055
 F                 -1.95317398   -1.17054787   -0.62851399
 F                 -0.04397400   -2.27270767   -0.64262345