[[44,43],[42,38],[39,34],[40,35],[41,36],[58,57],[56,52],[53,48],[54,49],[55,50],[73,71],[70,66],[67,62],[68,63],[69,64],[86,85],[84,80],[81,76],[82,77],[83,78],[2,6],[5,4],[13,12],[11,10],[27,26],[24,25],[16,17],[19,22]]
 OpenBabel11232011493D

 89100  0  0  0  0  0  0  0  0999 V2000
   -0.5218    1.8926   -7.5021 C   0  0  0  0  0  0  0  0  0  0  0  0
    0.8607    1.9747   -7.5114 N   0  0  0  0  0  4  0  0  0  0  0  0
   -2.0666    1.6288   -5.9001 H   0  0  0  0  0  0  0  0  0  0  0  0
    1.2306    1.8512   -6.1826 C   0  0  0  0  0  0  0  0  0  0  0  0
    0.0730    1.6906   -5.3414 C   0  0  0  0  0  0  0  0  0  0  0  0
    0.1102    1.5739   -4.2618 H   0  0  0  0  0  0  0  0  0  0  0  0
   -1.0156    1.7181   -6.1605 C   0  0  0  0  0  0  0  0  0  0  0  0
    2.5297    1.8822   -5.7078 C   0  0  0  0  0  0  0  0  0  0  0  0
    3.6264    2.2010   -7.8861 N   0  0  0  0  0  0  0  0  0  0  0  0
    4.9571    2.3420   -8.2434 C   0  0  0  0  0  0  0  0  0  0  0  0
    5.8083    2.2793   -7.0837 C   0  0  0  0  0  0  0  0  0  0  0  0
    6.8910    2.3658   -7.1115 H   0  0  0  0  0  0  0  0  0  0  0  0
    4.9935    2.0959   -6.0070 C   0  0  0  0  0  0  0  0  0  0  0  0
    5.2615    2.0000   -4.9584 H   0  0  0  0  0  0  0  0  0  0  0  0
    3.6448    2.0495   -6.5095 C   0  0  0  0  0  0  0  0  0  0  0  0
   -1.3349    1.9599   -8.6194 C   0  0  0  0  0  0  0  0  0  0  0  0
   -1.1661    2.3989  -13.2026 H   0  0  0  0  0  0  0  0  0  0  0  0
   -0.8993    2.3192  -12.1524 C   0  0  0  0  0  0  0  0  0  0  0  0
    0.4500    2.3576  -11.6507 C   0  0  0  0  0  0  0  0  0  0  0  0
   -2.8004    2.1002  -11.0426 H   0  0  0  0  0  0  0  0  0  0  0  0
    0.4666    2.2309  -10.2716 N   0  0  0  0  0  0  0  0  0  0  0  0
   -0.8657    2.1148   -9.9118 C   0  0  0  0  0  0  0  0  0  0  0  0
   -1.7165    2.1702  -11.0722 C   0  0  0  0  0  0  0  0  0  0  0  0
    5.4251    2.5145   -9.5338 C   0  0  0  0  0  0  0  0  0  0  0  0
    3.9853    2.8249  -13.8993 H   0  0  0  0  0  0  0  0  0  0  0  0
    4.0213    2.7246  -12.8180 C   0  0  0  0  0  0  0  0  0  0  0  0
    5.1075    2.7310  -11.9953 C   0  0  0  0  0  0  0  0  0  0  0  0
    6.1575    2.8364  -12.2541 H   0  0  0  0  0  0  0  0  0  0  0  0
    4.6133    2.5642  -10.6531 C   0  0  0  0  0  0  0  0  0  0  0  0
    3.2324    2.4574  -10.6462 N   0  0  0  0  0  4  0  0  0  0  0  0
    2.8642    2.5562  -11.9776 C   0  0  0  0  0  0  0  0  0  0  0  0
    1.5663    2.5073  -12.4542 C   0  0  0  0  0  0  0  0  0  0  0  0
    2.0465    2.2160   -9.0789 Co  0  0  1  0  0  0  0  0  0  0  0  0
   -2.8118    1.8637   -8.4166 C   0  0  0  0  0  0  0  0  0  0  0  0
   -5.5799    1.5838   -8.0280 C   0  0  0  0  0  0  0  0  0  0  0  0
   -4.7451    0.4716   -7.9244 C   0  0  0  0  0  0  0  0  0  0  0  0
   -3.3692    0.6093   -8.1137 C   0  0  0  0  0  0  0  0  0  0  0  0
   -3.6607    2.9973   -8.5169 C   0  0  0  0  0  0  0  0  0  0  0  0
   -5.0421    2.8387   -8.3196 C   0  0  0  0  0  0  0  0  0  0  0  0
   -6.6463    1.4747   -7.8785 H   0  0  0  0  0  0  0  0  0  0  0  0
   -5.1651   -0.4998   -7.6975 H   0  0  0  0  0  0  0  0  0  0  0  0
   -2.7342   -0.2646   -8.0330 H   0  0  0  0  0  0  0  0  0  0  0  0
   -5.7046    3.6932   -8.3875 H   0  0  0  0  0  0  0  0  0  0  0  0
   -3.1424    4.3837   -8.8030 C   0  0  0  0  0  0  0  0  0  0  0  0
   -3.6048    4.7709   -9.7346 H   0  0  0  0  0  0  0  0  0  0  0  0
   -3.4103    5.0560   -7.9603 H   0  0  0  0  0  0  0  0  0  0  0  0
   -2.0416    4.4214   -8.9209 H   0  0  0  0  0  0  0  0  0  0  0  0
    2.7433    1.7351   -4.2281 C   0  0  0  0  0  0  0  0  0  0  0  0
    3.1754    1.3358   -1.4752 C   0  0  0  0  0  0  0  0  0  0  0  0
    3.6159    0.3864   -2.3948 C   0  0  0  0  0  0  0  0  0  0  0  0
    3.4041    0.5830   -3.7597 C   0  0  0  0  0  0  0  0  0  0  0  0
    2.3033    2.7078   -3.2866 C   0  0  0  0  0  0  0  0  0  0  0  0
    2.5256    2.4890   -1.9169 C   0  0  0  0  0  0  0  0  0  0  0  0
    3.3414    1.1808   -0.4170 H   0  0  0  0  0  0  0  0  0  0  0  0
    4.1214   -0.5063   -2.0494 H   0  0  0  0  0  0  0  0  0  0  0  0
    3.7479   -0.1704   -4.4581 H   0  0  0  0  0  0  0  0  0  0  0  0
    2.1992    3.2202   -1.1873 H   0  0  0  0  0  0  0  0  0  0  0  0
    1.6264    3.9954   -3.6855 C   0  0  0  0  0  0  0  0  0  0  0  0
    0.6140    4.0415   -3.2318 H   0  0  0  0  0  0  0  0  0  0  0  0
    2.2250    4.8547   -3.3163 H   0  0  0  0  0  0  0  0  0  0  0  0
    1.5245    4.1140   -4.7814 H   0  0  0  0  0  0  0  0  0  0  0  0
    6.8998    2.6343   -9.7331 C   0  0  0  0  0  0  0  0  0  0  0  0
    9.6672    2.9580  -10.0875 C   0  0  0  0  0  0  0  0  0  0  0  0
    8.9002    4.0100   -9.5873 C   0  0  0  0  0  0  0  0  0  0  0  0
    7.5254    3.8498   -9.4072 C   0  0  0  0  0  0  0  0  0  0  0  0
    7.6806    1.5613  -10.2371 C   0  0  0  0  0  0  0  0  0  0  0  0
    9.0629    1.7409  -10.4078 C   0  0  0  0  0  0  0  0  0  0  0  0
   10.7334    3.0842  -10.2244 H   0  0  0  0  0  0  0  0  0  0  0  0
    9.3718    4.9521   -9.3395 H   0  0  0  0  0  0  0  0  0  0  0  0
    6.9423    4.6771   -9.0212 H   0  0  0  0  0  0  0  0  0  0  0  0
    9.6754    0.9320  -10.7875 H   0  0  0  0  0  0  0  0  0  0  0  0
    7.0943    0.2158  -10.5801 C   0  0  0  0  0  0  0  0  0  0  0  0
    7.2767   -0.0092  -11.6515 H   0  0  0  0  0  0  0  0  0  0  0  0
    7.5816   -0.5655   -9.9588 H   0  0  0  0  0  0  0  0  0  0  0  0
    6.0037    0.1563  -10.3947 H   0  0  0  0  0  0  0  0  0  0  0  0
    1.3565    2.6385  -13.9354 C   0  0  0  0  0  0  0  0  0  0  0  0
    0.9970    2.7653  -16.7241 C   0  0  0  0  0  0  0  0  0  0  0  0
    1.6448    1.6714  -16.1539 C   0  0  0  0  0  0  0  0  0  0  0  0
    1.8254    1.6074  -14.7719 C   0  0  0  0  0  0  0  0  0  0  0  0
    0.7036    3.7591  -14.5219 C   0  0  0  0  0  0  0  0  0  0  0  0
    0.5314    3.8026  -15.9154 C   0  0  0  0  0  0  0  0  0  0  0  0
    0.8589    2.8127  -17.7966 H   0  0  0  0  0  0  0  0  0  0  0  0
    2.0067    0.8693  -16.7840 H   0  0  0  0  0  0  0  0  0  0  0  0
    2.3257    0.7455  -14.3470 H   0  0  0  0  0  0  0  0  0  0  0  0
    0.0390    4.6494  -16.3782 H   0  0  0  0  0  0  0  0  0  0  0  0
    0.2045    4.9356  -13.7206 C   0  0  0  0  0  0  0  0  0  0  0  0
    0.7048    5.8609  -14.0764 H   0  0  0  0  0  0  0  0  0  0  0  0
   -0.8918    5.0438  -13.8589 H   0  0  0  0  0  0  0  0  0  0  0  0
    0.4131    4.8466  -12.6371 H   0  0  0  0  0  0  0  0  0  0  0  0
  1  7  1  0  0  0  0
  2  1  1  0  0  0  0
  2  4  2  0  0  0  0
  4  8  1  0  0  0  0
  4  5  1  0  0  0  0
  5  6  1  0  0  0  0
  7  3  1  0  0  0  0
  7  5  2  0  0  0  0
  9 15  1  0  0  0  0
 10  9  1  0  0  0  0
 10 11  1  0  0  0  0
 11 13  2  0  0  0  0
 12 11  1  0  0  0  0
 13 14  1  0  0  0  0
 15 13  1  0  0  0  0
 15  8  2  0  0  0  0
 16  1  2  0  0  0  0
 17 18  1  0  0  0  0
 18 19  2  0  0  0  0
 18 23  1  0  0  0  0
 19 21  1  0  0  0  0
 21 22  1  0  0  0  0
 22 16  1  0  0  0  0
 23 20  1  0  0  0  0
 23 22  2  0  0  0  0
 24 10  2  0  0  0  0
 25 26  1  0  0  0  0
 26 27  2  0  0  0  0
 26 31  1  0  0  0  0
 27 29  1  0  0  0  0
 28 27  1  0  0  0  0
 29 30  2  0  0  0  0
 29 24  1  0  0  0  0
 31 30  1  0  0  0  0
 32 31  2  0  0  0  0
 32 19  1  0  0  0  0
 33 21  1  6  0  0  0
 33 30  1  0  0  0  0
 33  9  1  0  0  0  0
 33  2  1  0  0  0  0
 34 16  1  0  0  0  0
 34 37  1  0  0  0  0
 34 38  2  0  0  0  0
 35 36  1  0  0  0  0
 35 40  1  0  0  0  0
 35 39  2  0  0  0  0
 36 37  2  0  0  0  0
 36 41  1  0  0  0  0
 37 42  1  0  0  0  0
 38 39  1  0  0  0  0
 38 44  1  0  0  0  0
 39 43  1  0  0  0  0
 44 45  1  0  0  0  0
 44 46  1  0  0  0  0
 44 47  1  0  0  0  0
 48  8  1  0  0  0  0
 48 51  1  0  0  0  0
 48 52  2  0  0  0  0
 49 50  1  0  0  0  0
 49 54  1  0  0  0  0
 49 53  2  0  0  0  0
 50 51  2  0  0  0  0
 50 55  1  0  0  0  0
 51 56  1  0  0  0  0
 52 53  1  0  0  0  0
 52 58  1  0  0  0  0
 53 57  1  0  0  0  0
 58 59  1  0  0  0  0
 58 60  1  0  0  0  0
 58 61  1  0  0  0  0
 62 24  1  0  0  0  0
 62 65  1  0  0  0  0
 62 66  2  0  0  0  0
 63 64  1  0  0  0  0
 63 68  1  0  0  0  0
 63 67  2  0  0  0  0
 64 65  2  0  0  0  0
 64 69  1  0  0  0  0
 65 70  1  0  0  0  0
 66 67  1  0  0  0  0
 66 72  1  0  0  0  0
 67 71  1  0  0  0  0
 72 73  1  0  0  0  0
 72 74  1  0  0  0  0
 72 75  1  0  0  0  0
 76 32  1  0  0  0  0
 76 79  1  0  0  0  0
 76 80  2  0  0  0  0
 77 78  1  0  0  0  0
 77 82  1  0  0  0  0
 77 81  2  0  0  0  0
 78 79  2  0  0  0  0
 78 83  1  0  0  0  0
 79 84  1  0  0  0  0
 80 81  1  0  0  0  0
 80 86  1  0  0  0  0
 81 85  1  0  0  0  0
 86 87  1  0  0  0  0
 86 88  1  0  0  0  0
 86 89  1  0  0  0  0
M  END
