[[44,42],[40,35],[39,34],[41,38],[47,46],[65,63],[58,55],[56,51],[57,52],[60,59],[78,76],[74,69],[73,68],[75,72],[81,80],[99,97],[92,89],[90,85],[91,86],[94,93],[2,6],[5,4],[13,12],[11,10],[27,26],[24,25],[16,17],[19,22]]
 OpenBabel11232011503D

101112  0  0  0  0  0  0  0  0999 V2000
   -0.5218    1.8926   -7.5021 C   0  0  0  0  0  0  0  0  0  0  0  0
    0.8607    1.9747   -7.5114 N   0  0  0  0  0  4  0  0  0  0  0  0
   -2.0666    1.6288   -5.9001 H   0  0  0  0  0  0  0  0  0  0  0  0
    1.2306    1.8512   -6.1826 C   0  0  0  0  0  0  0  0  0  0  0  0
    0.0730    1.6906   -5.3414 C   0  0  0  0  0  0  0  0  0  0  0  0
    0.1102    1.5739   -4.2618 H   0  0  0  0  0  0  0  0  0  0  0  0
   -1.0156    1.7181   -6.1605 C   0  0  0  0  0  0  0  0  0  0  0  0
    2.5297    1.8822   -5.7078 C   0  0  0  0  0  0  0  0  0  0  0  0
    3.6264    2.2010   -7.8861 N   0  0  0  0  0  0  0  0  0  0  0  0
    4.9571    2.3420   -8.2434 C   0  0  0  0  0  0  0  0  0  0  0  0
    5.8083    2.2793   -7.0837 C   0  0  0  0  0  0  0  0  0  0  0  0
    6.8910    2.3658   -7.1115 H   0  0  0  0  0  0  0  0  0  0  0  0
    4.9935    2.0959   -6.0070 C   0  0  0  0  0  0  0  0  0  0  0  0
    5.2615    2.0000   -4.9584 H   0  0  0  0  0  0  0  0  0  0  0  0
    3.6448    2.0495   -6.5095 C   0  0  0  0  0  0  0  0  0  0  0  0
   -1.3349    1.9599   -8.6194 C   0  0  0  0  0  0  0  0  0  0  0  0
   -1.1661    2.3989  -13.2026 H   0  0  0  0  0  0  0  0  0  0  0  0
   -0.8993    2.3192  -12.1524 C   0  0  0  0  0  0  0  0  0  0  0  0
    0.4500    2.3576  -11.6507 C   0  0  0  0  0  0  0  0  0  0  0  0
   -2.8004    2.1002  -11.0426 H   0  0  0  0  0  0  0  0  0  0  0  0
    0.4666    2.2309  -10.2716 N   0  0  0  0  0  0  0  0  0  0  0  0
   -0.8657    2.1148   -9.9118 C   0  0  0  0  0  0  0  0  0  0  0  0
   -1.7165    2.1702  -11.0722 C   0  0  0  0  0  0  0  0  0  0  0  0
    5.4251    2.5145   -9.5338 C   0  0  0  0  0  0  0  0  0  0  0  0
    3.9853    2.8249  -13.8993 H   0  0  0  0  0  0  0  0  0  0  0  0
    4.0213    2.7246  -12.8180 C   0  0  0  0  0  0  0  0  0  0  0  0
    5.1075    2.7310  -11.9953 C   0  0  0  0  0  0  0  0  0  0  0  0
    6.1575    2.8364  -12.2541 H   0  0  0  0  0  0  0  0  0  0  0  0
    4.6133    2.5642  -10.6531 C   0  0  0  0  0  0  0  0  0  0  0  0
    3.2324    2.4574  -10.6462 N   0  0  0  0  0  4  0  0  0  0  0  0
    2.8642    2.5562  -11.9776 C   0  0  0  0  0  0  0  0  0  0  0  0
    1.5663    2.5073  -12.4542 C   0  0  0  0  0  0  0  0  0  0  0  0
    2.0465    2.2160   -9.0789 Co  0  0  1  0  0  0  0  0  0  0  0  0
   -2.8129    1.8510   -8.4190 C   0  0  0  0  0  0  0  0  0  0  0  0
   -5.5928    1.6478   -8.0347 C   0  0  0  0  0  0  0  0  0  0  0  0
   -4.8072    0.4984   -8.0402 C   0  0  0  0  0  0  0  0  0  0  0  0
   -3.4203    0.5798   -8.2301 C   0  0  0  0  0  0  0  0  0  0  0  0
   -3.6236    3.0185   -8.4119 C   0  0  0  0  0  0  0  0  0  0  0  0
   -5.0071    2.8974   -8.2189 C   0  0  0  0  0  0  0  0  0  0  0  0
   -6.6622    1.5697   -7.8865 H   0  0  0  0  0  0  0  0  0  0  0  0
   -5.2832   -0.4643   -7.8977 H   0  0  0  0  0  0  0  0  0  0  0  0
   -5.6362    3.7795   -8.2080 H   0  0  0  0  0  0  0  0  0  0  0  0
   -2.6401   -0.7114   -8.2360 C   0  0  0  0  0  0  0  0  0  0  0  0
   -2.7697   -1.2277   -7.2618 H   0  0  0  0  0  0  0  0  0  0  0  0
   -3.0223   -1.3683   -9.0458 H   0  0  0  0  0  0  0  0  0  0  0  0
   -1.5550   -0.5692   -8.4056 H   0  0  0  0  0  0  0  0  0  0  0  0
   -3.0630    4.4078   -8.5898 C   0  0  0  0  0  0  0  0  0  0  0  0
   -3.5233    4.8822   -9.4817 H   0  0  0  0  0  0  0  0  0  0  0  0
   -3.3016    5.0182   -7.6932 H   0  0  0  0  0  0  0  0  0  0  0  0
   -1.9637    4.4253   -8.7228 H   0  0  0  0  0  0  0  0  0  0  0  0
    2.7406    1.7349   -4.2265 C   0  0  0  0  0  0  0  0  0  0  0  0
    3.1340    1.4554   -1.4485 C   0  0  0  0  0  0  0  0  0  0  0  0
    3.5182    0.4330   -2.3097 C   0  0  0  0  0  0  0  0  0  0  0  0
    3.3293    0.5511   -3.6942 C   0  0  0  0  0  0  0  0  0  0  0  0
    2.3552    2.7758   -3.3323 C   0  0  0  0  0  0  0  0  0  0  0  0
    2.5570    2.6158   -1.9539 C   0  0  0  0  0  0  0  0  0  0  0  0
    3.2846    1.3480   -0.3820 H   0  0  0  0  0  0  0  0  0  0  0  0
    3.9621   -0.4637   -1.8937 H   0  0  0  0  0  0  0  0  0  0  0  0
    2.2696    3.4012   -1.2651 H   0  0  0  0  0  0  0  0  0  0  0  0
    3.7517   -0.6200   -4.5479 C   0  0  0  0  0  0  0  0  0  0  0  0
    4.8411   -0.7958   -4.4236 H   0  0  0  0  0  0  0  0  0  0  0  0
    3.2019   -1.5288   -4.2241 H   0  0  0  0  0  0  0  0  0  0  0  0
    3.5464   -0.4795   -5.6262 H   0  0  0  0  0  0  0  0  0  0  0  0
    1.7484    4.0798   -3.7911 C   0  0  0  0  0  0  0  0  0  0  0  0
    0.7400    4.1986   -3.3412 H   0  0  0  0  0  0  0  0  0  0  0  0
    2.3914    4.9219   -3.4588 H   0  0  0  0  0  0  0  0  0  0  0  0
    1.6470    4.1591   -4.8902 H   0  0  0  0  0  0  0  0  0  0  0  0
    6.9004    2.6473   -9.7364 C   0  0  0  0  0  0  0  0  0  0  0  0
    9.6752    2.8995  -10.1264 C   0  0  0  0  0  0  0  0  0  0  0  0
    8.9278    4.0029   -9.7231 C   0  0  0  0  0  0  0  0  0  0  0  0
    7.5439    3.8963   -9.5236 C   0  0  0  0  0  0  0  0  0  0  0  0
    7.6718    1.5267  -10.1479 C   0  0  0  0  0  0  0  0  0  0  0  0
    9.0536    1.6716  -10.3370 C   0  0  0  0  0  0  0  0  0  0  0  0
   10.7427    2.9967  -10.2769 H   0  0  0  0  0  0  0  0  0  0  0  0
    9.4306    4.9499   -9.5676 H   0  0  0  0  0  0  0  0  0  0  0  0
    9.6538    0.8251  -10.6485 H   0  0  0  0  0  0  0  0  0  0  0  0
    6.8019    5.1395   -9.0999 C   0  0  0  0  0  0  0  0  0  0  0  0
    7.2084    5.5025   -8.1328 H   0  0  0  0  0  0  0  0  0  0  0  0
    6.9392    5.9297   -9.8681 H   0  0  0  0  0  0  0  0  0  0  0  0
    5.7130    4.9806   -8.9742 H   0  0  0  0  0  0  0  0  0  0  0  0
    7.0739    0.1622  -10.3855 C   0  0  0  0  0  0  0  0  0  0  0  0
    7.2574   -0.1453  -11.4364 H   0  0  0  0  0  0  0  0  0  0  0  0
    7.5538   -0.5733   -9.7057 H   0  0  0  0  0  0  0  0  0  0  0  0
    5.9821    0.1224  -10.2041 H   0  0  0  0  0  0  0  0  0  0  0  0
    1.3560    2.6319  -13.9370 C   0  0  0  0  0  0  0  0  0  0  0  0
    0.9678    2.8650  -16.7195 C   0  0  0  0  0  0  0  0  0  0  0  0
    1.5379    1.7105  -16.1931 C   0  0  0  0  0  0  0  0  0  0  0  0
    1.7377    1.5739  -14.8120 C   0  0  0  0  0  0  0  0  0  0  0  0
    0.7758    3.8100  -14.4902 C   0  0  0  0  0  0  0  0  0  0  0  0
    0.5890    3.9050  -15.8768 C   0  0  0  0  0  0  0  0  0  0  0  0
    0.8189    2.9546  -17.7879 H   0  0  0  0  0  0  0  0  0  0  0  0
    1.8219    0.9115  -16.8677 H   0  0  0  0  0  0  0  0  0  0  0  0
    0.1513    4.7970  -16.3090 H   0  0  0  0  0  0  0  0  0  0  0  0
    2.3389    0.2762  -14.3287 C   0  0  0  0  0  0  0  0  0  0  0  0
    1.6923   -0.5692  -14.6451 H   0  0  0  0  0  0  0  0  0  0  0  0
    3.3467    0.1448  -14.7762 H   0  0  0  0  0  0  0  0  0  0  0  0
    2.4407    0.2175  -13.2283 H   0  0  0  0  0  0  0  0  0  0  0  0
    0.3611    4.9984  -13.6570 C   0  0  0  0  0  0  0  0  0  0  0  0
    0.9179    5.8974  -13.9958 H   0  0  0  0  0  0  0  0  0  0  0  0
   -0.7269    5.1801  -13.7853 H   0  0  0  0  0  0  0  0  0  0  0  0
    0.5646    4.8744  -12.5763 H   0  0  0  0  0  0  0  0  0  0  0  0
  1  7  1  0  0  0  0
  2  1  1  0  0  0  0
  2  4  2  0  0  0  0
  4  8  1  0  0  0  0
  4  5  1  0  0  0  0
  5  6  1  0  0  0  0
  7  3  1  0  0  0  0
  7  5  2  0  0  0  0
  9 15  1  0  0  0  0
 10  9  1  0  0  0  0
 10 11  1  0  0  0  0
 11 13  2  0  0  0  0
 12 11  1  0  0  0  0
 13 14  1  0  0  0  0
 15 13  1  0  0  0  0
 15  8  2  0  0  0  0
 16  1  2  0  0  0  0
 17 18  1  0  0  0  0
 18 19  2  0  0  0  0
 18 23  1  0  0  0  0
 19 21  1  0  0  0  0
 21 22  1  0  0  0  0
 22 16  1  0  0  0  0
 23 20  1  0  0  0  0
 23 22  2  0  0  0  0
 24 10  2  0  0  0  0
 25 26  1  0  0  0  0
 26 27  2  0  0  0  0
 26 31  1  0  0  0  0
 27 29  1  0  0  0  0
 28 27  1  0  0  0  0
 29 30  2  0  0  0  0
 29 24  1  0  0  0  0
 31 30  1  0  0  0  0
 32 31  2  0  0  0  0
 32 19  1  0  0  0  0
 33 21  1  6  0  0  0
 33 30  1  0  0  0  0
 33  9  1  0  0  0  0
 33  2  1  0  0  0  0
 34 16  1  0  0  0  0
 34 37  1  0  0  0  0
 34 38  2  0  0  0  0
 35 36  1  0  0  0  0
 35 40  1  0  0  0  0
 35 39  2  0  0  0  0
 36 37  2  0  0  0  0
 36 41  1  0  0  0  0
 37 43  1  0  0  0  0
 38 39  1  0  0  0  0
 38 47  1  0  0  0  0
 39 42  1  0  0  0  0
 43 44  1  0  0  0  0
 43 45  1  0  0  0  0
 43 46  1  0  0  0  0
 47 48  1  0  0  0  0
 47 49  1  0  0  0  0
 47 50  1  0  0  0  0
 51  8  1  0  0  0  0
 51 54  1  0  0  0  0
 51 55  2  0  0  0  0
 52 53  1  0  0  0  0
 52 57  1  0  0  0  0
 52 56  2  0  0  0  0
 53 54  2  0  0  0  0
 53 58  1  0  0  0  0
 54 60  1  0  0  0  0
 55 56  1  0  0  0  0
 55 64  1  0  0  0  0
 56 59  1  0  0  0  0
 60 61  1  0  0  0  0
 60 62  1  0  0  0  0
 60 63  1  0  0  0  0
 64 65  1  0  0  0  0
 64 66  1  0  0  0  0
 64 67  1  0  0  0  0
 68 24  1  0  0  0  0
 68 71  1  0  0  0  0
 68 72  2  0  0  0  0
 69 70  1  0  0  0  0
 69 74  1  0  0  0  0
 69 73  2  0  0  0  0
 70 71  2  0  0  0  0
 70 75  1  0  0  0  0
 71 77  1  0  0  0  0
 72 73  1  0  0  0  0
 72 81  1  0  0  0  0
 73 76  1  0  0  0  0
 77 78  1  0  0  0  0
 77 79  1  0  0  0  0
 77 80  1  0  0  0  0
 81 82  1  0  0  0  0
 81 83  1  0  0  0  0
 81 84  1  0  0  0  0
 85 32  1  0  0  0  0
 85 88  1  0  0  0  0
 85 89  2  0  0  0  0
 86 87  1  0  0  0  0
 86 91  1  0  0  0  0
 86 90  2  0  0  0  0
 87 88  2  0  0  0  0
 87 92  1  0  0  0  0
 88 94  1  0  0  0  0
 89 90  1  0  0  0  0
 89 98  1  0  0  0  0
 90 93  1  0  0  0  0
 94 95  1  0  0  0  0
 94 96  1  0  0  0  0
 94 97  1  0  0  0  0
 98 99  1  0  0  0  0
 98100  1  0  0  0  0
 98101  1  0  0  0  0
M  END
