[[47,45],[41,38],[39,34],[40,35],[44,42],[62,60],[56,53],[54,49],[55,50],[59,57],[74,72],[70,65],[69,64],[71,68],[77,75],[91,90],[86,83],[84,79],[85,80],[88,87],[2,6],[5,4],[13,12],[11,10],[27,26],[24,25],[16,17],[19,22]]
 OpenBabel11232011193D

 93104  0  0  0  0  0  0  0  0999 V2000
   -0.5218    1.8926   -7.5021 C   0  0  0  0  0  0  0  0  0  0  0  0
    0.8607    1.9747   -7.5114 N   0  0  0  0  0  4  0  0  0  0  0  0
   -2.0666    1.6288   -5.9001 H   0  0  0  0  0  0  0  0  0  0  0  0
    1.2306    1.8512   -6.1826 C   0  0  0  0  0  0  0  0  0  0  0  0
    0.0730    1.6906   -5.3414 C   0  0  0  0  0  0  0  0  0  0  0  0
    0.1102    1.5739   -4.2618 H   0  0  0  0  0  0  0  0  0  0  0  0
   -1.0156    1.7181   -6.1605 C   0  0  0  0  0  0  0  0  0  0  0  0
    2.5297    1.8822   -5.7078 C   0  0  0  0  0  0  0  0  0  0  0  0
    3.6264    2.2010   -7.8861 N   0  0  0  0  0  0  0  0  0  0  0  0
    4.9571    2.3420   -8.2434 C   0  0  0  0  0  0  0  0  0  0  0  0
    5.8083    2.2793   -7.0837 C   0  0  0  0  0  0  0  0  0  0  0  0
    6.8910    2.3658   -7.1115 H   0  0  0  0  0  0  0  0  0  0  0  0
    4.9935    2.0959   -6.0070 C   0  0  0  0  0  0  0  0  0  0  0  0
    5.2615    2.0000   -4.9584 H   0  0  0  0  0  0  0  0  0  0  0  0
    3.6448    2.0495   -6.5095 C   0  0  0  0  0  0  0  0  0  0  0  0
   -1.3349    1.9599   -8.6194 C   0  0  0  0  0  0  0  0  0  0  0  0
   -1.1661    2.3989  -13.2026 H   0  0  0  0  0  0  0  0  0  0  0  0
   -0.8993    2.3192  -12.1524 C   0  0  0  0  0  0  0  0  0  0  0  0
    0.4500    2.3576  -11.6507 C   0  0  0  0  0  0  0  0  0  0  0  0
   -2.8004    2.1002  -11.0426 H   0  0  0  0  0  0  0  0  0  0  0  0
    0.4666    2.2309  -10.2716 N   0  0  0  0  0  0  0  0  0  0  0  0
   -0.8657    2.1148   -9.9118 C   0  0  0  0  0  0  0  0  0  0  0  0
   -1.7165    2.1702  -11.0722 C   0  0  0  0  0  0  0  0  0  0  0  0
    5.4251    2.5145   -9.5338 C   0  0  0  0  0  0  0  0  0  0  0  0
    3.9853    2.8249  -13.8993 H   0  0  0  0  0  0  0  0  0  0  0  0
    4.0213    2.7246  -12.8180 C   0  0  0  0  0  0  0  0  0  0  0  0
    5.1075    2.7310  -11.9953 C   0  0  0  0  0  0  0  0  0  0  0  0
    6.1575    2.8364  -12.2541 H   0  0  0  0  0  0  0  0  0  0  0  0
    4.6133    2.5642  -10.6531 C   0  0  0  0  0  0  0  0  0  0  0  0
    3.2324    2.4574  -10.6462 N   0  0  0  0  0  4  0  0  0  0  0  0
    2.8642    2.5562  -11.9776 C   0  0  0  0  0  0  0  0  0  0  0  0
    1.5663    2.5073  -12.4542 C   0  0  0  0  0  0  0  0  0  0  0  0
    2.0465    2.2160   -9.0789 Co  0  0  1  0  0  0  0  0  0  0  0  0
   -2.8116    1.8507   -8.4194 C   0  0  0  0  0  0  0  0  0  0  0  0
   -5.5888    1.6468   -8.0371 C   0  0  0  0  0  0  0  0  0  0  0  0
   -4.8036    0.4958   -8.0544 C   0  0  0  0  0  0  0  0  0  0  0  0
   -3.4169    0.5807   -8.2429 C   0  0  0  0  0  0  0  0  0  0  0  0
   -3.6176    3.0171   -8.4017 C   0  0  0  0  0  0  0  0  0  0  0  0
   -5.0012    2.8987   -8.2089 C   0  0  0  0  0  0  0  0  0  0  0  0
   -6.6582    1.5684   -7.8896 H   0  0  0  0  0  0  0  0  0  0  0  0
   -5.2784   -0.4684   -7.9217 H   0  0  0  0  0  0  0  0  0  0  0  0
   -5.6272    3.7821   -8.1895 H   0  0  0  0  0  0  0  0  0  0  0  0
   -2.6506   -0.6162   -8.2645 N   0  0  0  0  0  0  0  0  0  0  0  0
   -1.6322   -0.6057   -8.4148 H   0  0  0  0  0  0  0  0  0  0  0  0
   -3.1081   -1.5314   -8.1423 H   0  0  0  0  0  0  0  0  0  0  0  0
   -3.0532    4.3117   -8.5619 N   0  0  0  0  0  0  0  0  0  0  0  0
   -2.0414    4.4503   -8.6912 H   0  0  0  0  0  0  0  0  0  0  0  0
   -3.6529    5.1495   -8.5375 H   0  0  0  0  0  0  0  0  0  0  0  0
    2.7413    1.7350   -4.2264 C   0  0  0  0  0  0  0  0  0  0  0  0
    3.1368    1.4574   -1.4504 C   0  0  0  0  0  0  0  0  0  0  0  0
    3.5512    0.4481   -2.3152 C   0  0  0  0  0  0  0  0  0  0  0  0
    3.3612    0.5688   -3.6989 C   0  0  0  0  0  0  0  0  0  0  0  0
    2.3247    2.7604   -3.3316 C   0  0  0  0  0  0  0  0  0  0  0  0
    2.5283    2.6034   -1.9534 C   0  0  0  0  0  0  0  0  0  0  0  0
    3.2885    1.3503   -0.3840 H   0  0  0  0  0  0  0  0  0  0  0  0
    4.0190   -0.4374   -1.9035 H   0  0  0  0  0  0  0  0  0  0  0  0
    2.2174    3.3791   -1.2644 H   0  0  0  0  0  0  0  0  0  0  0  0
    3.7795   -0.5004   -4.5386 N   0  0  0  0  0  0  0  0  0  0  0  0
    3.6319   -0.4841   -5.5567 H   0  0  0  0  0  0  0  0  0  0  0  0
    4.2258   -1.3369   -4.1349 H   0  0  0  0  0  0  0  0  0  0  0  0
    1.7221    3.9605   -3.7983 N   0  0  0  0  0  0  0  0  0  0  0  0
    1.5836    4.1479   -4.8005 H   0  0  0  0  0  0  0  0  0  0  0  0
    1.4285    4.6902   -3.1322 H   0  0  0  0  0  0  0  0  0  0  0  0
    6.8991    2.6474   -9.7358 C   0  0  0  0  0  0  0  0  0  0  0  0
    9.6712    2.8996  -10.1230 C   0  0  0  0  0  0  0  0  0  0  0  0
    8.9198    4.0083   -9.7382 C   0  0  0  0  0  0  0  0  0  0  0  0
    7.5362    3.8986   -9.5401 C   0  0  0  0  0  0  0  0  0  0  0  0
    7.6702    1.5242  -10.1280 C   0  0  0  0  0  0  0  0  0  0  0  0
    9.0522    1.6662  -10.3162 C   0  0  0  0  0  0  0  0  0  0  0  0
   10.7389    2.9969  -10.2726 H   0  0  0  0  0  0  0  0  0  0  0  0
    9.4179    4.9592   -9.5955 H   0  0  0  0  0  0  0  0  0  0  0  0
    9.6529    0.8155  -10.6132 H   0  0  0  0  0  0  0  0  0  0  0  0
    6.8014    5.0535   -9.1576 N   0  0  0  0  0  0  0  0  0  0  0  0
    5.7825    5.0248   -9.0129 H   0  0  0  0  0  0  0  0  0  0  0  0
    7.2794    5.9572   -9.0276 H   0  0  0  0  0  0  0  0  0  0  0  0
    7.0754    0.2488  -10.3266 N   0  0  0  0  0  0  0  0  0  0  0  0
    6.0673    0.0929  -10.1882 H   0  0  0  0  0  0  0  0  0  0  0  0
    7.6520   -0.5586  -10.6053 H   0  0  0  0  0  0  0  0  0  0  0  0
    1.3558    2.6319  -13.9372 C   0  0  0  0  0  0  0  0  0  0  0  0
    0.9660    2.8648  -16.7176 C   0  0  0  0  0  0  0  0  0  0  0  0
    1.5683    1.7241  -16.1942 C   0  0  0  0  0  0  0  0  0  0  0  0
    1.7691    1.5906  -14.8133 C   0  0  0  0  0  0  0  0  0  0  0  0
    0.7434    3.7932  -14.4849 C   0  0  0  0  0  0  0  0  0  0  0  0
    0.5562    3.8908  -15.8710 C   0  0  0  0  0  0  0  0  0  0  0  0
    0.8165    2.9542  -17.7860 H   0  0  0  0  0  0  0  0  0  0  0  0
    1.8766    0.9355  -16.8693 H   0  0  0  0  0  0  0  0  0  0  0  0
    0.0940    4.7720  -16.2984 H   0  0  0  0  0  0  0  0  0  0  0  0
    2.3673    0.3963  -14.3247 N   0  0  0  0  0  0  0  0  0  0  0  0
    2.6581   -0.3464  -14.9772 H   0  0  0  0  0  0  0  0  0  0  0  0
    2.5058    0.2275  -13.3192 H   0  0  0  0  0  0  0  0  0  0  0  0
    0.3311    4.8784  -13.6640 N   0  0  0  0  0  0  0  0  0  0  0  0
   -0.1088    5.7113  -14.0823 H   0  0  0  0  0  0  0  0  0  0  0  0
    0.4777    4.8784  -12.6456 H   0  0  0  0  0  0  0  0  0  0  0  0
  1  7  1  0  0  0  0
  2  1  1  0  0  0  0
  2  4  2  0  0  0  0
  4  8  1  0  0  0  0
  4  5  1  0  0  0  0
  5  6  1  0  0  0  0
  7  3  1  0  0  0  0
  7  5  2  0  0  0  0
  9 15  1  0  0  0  0
 10  9  1  0  0  0  0
 10 11  1  0  0  0  0
 11 13  2  0  0  0  0
 12 11  1  0  0  0  0
 13 14  1  0  0  0  0
 15 13  1  0  0  0  0
 15  8  2  0  0  0  0
 16  1  2  0  0  0  0
 17 18  1  0  0  0  0
 18 19  2  0  0  0  0
 18 23  1  0  0  0  0
 19 21  1  0  0  0  0
 21 22  1  0  0  0  0
 22 16  1  0  0  0  0
 23 20  1  0  0  0  0
 23 22  2  0  0  0  0
 24 10  2  0  0  0  0
 25 26  1  0  0  0  0
 26 27  2  0  0  0  0
 26 31  1  0  0  0  0
 27 29  1  0  0  0  0
 28 27  1  0  0  0  0
 29 30  2  0  0  0  0
 29 24  1  0  0  0  0
 31 30  1  0  0  0  0
 32 31  2  0  0  0  0
 32 19  1  0  0  0  0
 33 21  1  6  0  0  0
 33 30  1  0  0  0  0
 33  9  1  0  0  0  0
 33  2  1  0  0  0  0
 34 16  1  0  0  0  0
 34 37  1  0  0  0  0
 34 38  2  0  0  0  0
 35 36  1  0  0  0  0
 35 40  1  0  0  0  0
 35 39  2  0  0  0  0
 36 37  2  0  0  0  0
 36 41  1  0  0  0  0
 37 43  1  0  0  0  0
 38 39  1  0  0  0  0
 38 46  1  0  0  0  0
 39 42  1  0  0  0  0
 43 44  1  0  0  0  0
 43 45  1  0  0  0  0
 46 47  1  0  0  0  0
 46 48  1  0  0  0  0
 49  8  1  0  0  0  0
 49 52  1  0  0  0  0
 49 53  2  0  0  0  0
 50 51  1  0  0  0  0
 50 55  1  0  0  0  0
 50 54  2  0  0  0  0
 51 52  2  0  0  0  0
 51 56  1  0  0  0  0
 52 58  1  0  0  0  0
 53 54  1  0  0  0  0
 53 61  1  0  0  0  0
 54 57  1  0  0  0  0
 58 59  1  0  0  0  0
 58 60  1  0  0  0  0
 61 62  1  0  0  0  0
 61 63  1  0  0  0  0
 64 24  1  0  0  0  0
 64 67  1  0  0  0  0
 64 68  2  0  0  0  0
 65 66  1  0  0  0  0
 65 70  1  0  0  0  0
 65 69  2  0  0  0  0
 66 67  2  0  0  0  0
 66 71  1  0  0  0  0
 67 73  1  0  0  0  0
 68 69  1  0  0  0  0
 68 76  1  0  0  0  0
 69 72  1  0  0  0  0
 73 74  1  0  0  0  0
 73 75  1  0  0  0  0
 76 77  1  0  0  0  0
 76 78  1  0  0  0  0
 79 32  1  0  0  0  0
 79 82  1  0  0  0  0
 79 83  2  0  0  0  0
 80 81  1  0  0  0  0
 80 85  1  0  0  0  0
 80 84  2  0  0  0  0
 81 82  2  0  0  0  0
 81 86  1  0  0  0  0
 82 88  1  0  0  0  0
 83 84  1  0  0  0  0
 83 91  1  0  0  0  0
 84 87  1  0  0  0  0
 88 89  1  0  0  0  0
 88 90  1  0  0  0  0
 91 92  1  0  0  0  0
 91 93  1  0  0  0  0
M  END
