[[41,37],[42,38],[44,43],[39,35],[40,36],[54,50],[55,51],[57,56],[52,48],[53,49],[66,62],[65,61],[71,69],[68,64],[67,63],[80,76],[81,77],[84,82],[78,74],[79,75],[2,6],[5,4],[13,12],[11,10],[27,26],[24,25],[16,17],[19,22]]
 OpenBabel11232011153D

 85 96  0  0  0  0  0  0  0  0999 V2000
   -0.5218    1.8926   -7.5021 C   0  0  0  0  0  0  0  0  0  0  0  0
    0.8607    1.9747   -7.5114 N   0  0  0  0  0  4  0  0  0  0  0  0
   -2.0666    1.6288   -5.9001 H   0  0  0  0  0  0  0  0  0  0  0  0
    1.2306    1.8512   -6.1826 C   0  0  0  0  0  0  0  0  0  0  0  0
    0.0730    1.6906   -5.3414 C   0  0  0  0  0  0  0  0  0  0  0  0
    0.1102    1.5739   -4.2618 H   0  0  0  0  0  0  0  0  0  0  0  0
   -1.0156    1.7181   -6.1605 C   0  0  0  0  0  0  0  0  0  0  0  0
    2.5297    1.8822   -5.7078 C   0  0  0  0  0  0  0  0  0  0  0  0
    3.6264    2.2010   -7.8861 N   0  0  0  0  0  0  0  0  0  0  0  0
    4.9571    2.3420   -8.2434 C   0  0  0  0  0  0  0  0  0  0  0  0
    5.8083    2.2793   -7.0837 C   0  0  0  0  0  0  0  0  0  0  0  0
    6.8910    2.3658   -7.1115 H   0  0  0  0  0  0  0  0  0  0  0  0
    4.9935    2.0959   -6.0070 C   0  0  0  0  0  0  0  0  0  0  0  0
    5.2615    2.0000   -4.9584 H   0  0  0  0  0  0  0  0  0  0  0  0
    3.6448    2.0495   -6.5095 C   0  0  0  0  0  0  0  0  0  0  0  0
   -1.3349    1.9599   -8.6194 C   0  0  0  0  0  0  0  0  0  0  0  0
   -1.1661    2.3989  -13.2026 H   0  0  0  0  0  0  0  0  0  0  0  0
   -0.8993    2.3192  -12.1524 C   0  0  0  0  0  0  0  0  0  0  0  0
    0.4500    2.3576  -11.6507 C   0  0  0  0  0  0  0  0  0  0  0  0
   -2.8004    2.1002  -11.0426 H   0  0  0  0  0  0  0  0  0  0  0  0
    0.4666    2.2309  -10.2716 N   0  0  0  0  0  0  0  0  0  0  0  0
   -0.8657    2.1148   -9.9118 C   0  0  0  0  0  0  0  0  0  0  0  0
   -1.7165    2.1702  -11.0722 C   0  0  0  0  0  0  0  0  0  0  0  0
    5.4251    2.5145   -9.5338 C   0  0  0  0  0  0  0  0  0  0  0  0
    3.9853    2.8249  -13.8993 H   0  0  0  0  0  0  0  0  0  0  0  0
    4.0213    2.7246  -12.8180 C   0  0  0  0  0  0  0  0  0  0  0  0
    5.1075    2.7310  -11.9953 C   0  0  0  0  0  0  0  0  0  0  0  0
    6.1575    2.8364  -12.2541 H   0  0  0  0  0  0  0  0  0  0  0  0
    4.6133    2.5642  -10.6531 C   0  0  0  0  0  0  0  0  0  0  0  0
    3.2324    2.4574  -10.6462 N   0  0  0  0  0  4  0  0  0  0  0  0
    2.8642    2.5562  -11.9776 C   0  0  0  0  0  0  0  0  0  0  0  0
    1.5663    2.5073  -12.4542 C   0  0  0  0  0  0  0  0  0  0  0  0
    2.0465    2.2160   -9.0789 Co  0  0  1  0  0  0  0  0  0  0  0  0
   -2.8050    1.8696   -8.4195 C   0  0  0  0  0  0  0  0  0  0  0  0
   -5.5836    1.7143   -8.0368 C   0  0  0  0  0  0  0  0  0  0  0  0
   -4.8176    0.5430   -8.1391 C   0  0  0  0  0  0  0  0  0  0  0  0
   -3.4340    0.6197   -8.3265 C   0  0  0  0  0  0  0  0  0  0  0  0
   -3.5703    3.0409   -8.3205 C   0  0  0  0  0  0  0  0  0  0  0  0
   -4.9520    2.9634   -8.1272 C   0  0  0  0  0  0  0  0  0  0  0  0
   -5.2925   -0.4278   -8.0728 H   0  0  0  0  0  0  0  0  0  0  0  0
   -2.8531   -0.2910   -8.4038 H   0  0  0  0  0  0  0  0  0  0  0  0
   -3.0940    4.0115   -8.3877 H   0  0  0  0  0  0  0  0  0  0  0  0
   -5.5300    3.8756   -8.0480 H   0  0  0  0  0  0  0  0  0  0  0  0
   -6.9845    1.6367   -7.8433 N   0  0  0  0  0  0  0  0  0  0  0  0
   -7.5526    2.4929   -7.7633 H   0  0  0  0  0  0  0  0  0  0  0  0
   -7.4570    0.7231   -7.7790 H   0  0  0  0  0  0  0  0  0  0  0  0
    2.7365    1.7439   -4.2249 C   0  0  0  0  0  0  0  0  0  0  0  0
    3.1034    1.4800   -1.4413 C   0  0  0  0  0  0  0  0  0  0  0  0
    3.6621    0.5413   -2.3198 C   0  0  0  0  0  0  0  0  0  0  0  0
    3.4833    0.6731   -3.7001 C   0  0  0  0  0  0  0  0  0  0  0  0
    2.1806    2.6831   -3.3356 C   0  0  0  0  0  0  0  0  0  0  0  0
    2.3644    2.5527   -1.9570 C   0  0  0  0  0  0  0  0  0  0  0  0
    4.2336   -0.2939   -1.9350 H   0  0  0  0  0  0  0  0  0  0  0  0
    3.9162   -0.0670   -4.3620 H   0  0  0  0  0  0  0  0  0  0  0  0
    1.6081    3.5212   -3.7141 H   0  0  0  0  0  0  0  0  0  0  0  0
    1.9290    3.2873   -1.2910 H   0  0  0  0  0  0  0  0  0  0  0  0
    3.2825    1.3450   -0.0428 N   0  0  0  0  0  0  0  0  0  0  0  0
    2.8742    2.0317    0.6083 H   0  0  0  0  0  0  0  0  0  0  0  0
    3.8198    0.5557    0.3451 H   0  0  0  0  0  0  0  0  0  0  0  0
    6.8925    2.6282   -9.7392 C   0  0  0  0  0  0  0  0  0  0  0  0
    9.6640    2.8318  -10.1481 C   0  0  0  0  0  0  0  0  0  0  0  0
    8.9028    3.9799   -9.8808 C   0  0  0  0  0  0  0  0  0  0  0  0
    7.5232    3.8790   -9.6762 C   0  0  0  0  0  0  0  0  0  0  0  0
    7.6524    1.4801  -10.0066 C   0  0  0  0  0  0  0  0  0  0  0  0
    9.0313    1.5814  -10.2087 C   0  0  0  0  0  0  0  0  0  0  0  0
    9.3782    4.9515   -9.8326 H   0  0  0  0  0  0  0  0  0  0  0  0
    6.9455    4.7723   -9.4731 H   0  0  0  0  0  0  0  0  0  0  0  0
    7.1749    0.5092  -10.0581 H   0  0  0  0  0  0  0  0  0  0  0  0
    9.6060    0.6869  -10.4139 H   0  0  0  0  0  0  0  0  0  0  0  0
   11.0612    2.9341  -10.3571 N   0  0  0  0  0  0  0  0  0  0  0  0
   11.6262    2.0950  -10.5544 H   0  0  0  0  0  0  0  0  0  0  0  0
   11.5335    3.8492  -10.3177 H   0  0  0  0  0  0  0  0  0  0  0  0
    1.3520    2.6441  -13.9349 C   0  0  0  0  0  0  0  0  0  0  0  0
    0.9428    2.9049  -16.7120 C   0  0  0  0  0  0  0  0  0  0  0  0
    1.6819    1.8271  -16.2050 C   0  0  0  0  0  0  0  0  0  0  0  0
    1.8883    1.6989  -14.8284 C   0  0  0  0  0  0  0  0  0  0  0  0
    0.6101    3.7226  -14.4516 C   0  0  0  0  0  0  0  0  0  0  0  0
    0.4101    3.8527  -15.8282 C   0  0  0  0  0  0  0  0  0  0  0  0
    2.0972    1.0858  -16.8762 H   0  0  0  0  0  0  0  0  0  0  0  0
    2.4576    0.8564  -14.4552 H   0  0  0  0  0  0  0  0  0  0  0  0
    0.1938    4.4682  -13.7850 H   0  0  0  0  0  0  0  0  0  0  0  0
   -0.1602    4.6924  -16.2054 H   0  0  0  0  0  0  0  0  0  0  0  0
    0.7354    3.0353  -18.1070 N   0  0  0  0  0  0  0  0  0  0  0  0
    1.1197    2.3400  -18.7634 H   0  0  0  0  0  0  0  0  0  0  0  0
    0.1955    3.8270  -18.4866 H   0  0  0  0  0  0  0  0  0  0  0  0
  1  7  1  0  0  0  0
  2  1  1  0  0  0  0
  2  4  2  0  0  0  0
  4  8  1  0  0  0  0
  4  5  1  0  0  0  0
  5  6  1  0  0  0  0
  7  3  1  0  0  0  0
  7  5  2  0  0  0  0
  9 15  1  0  0  0  0
 10  9  1  0  0  0  0
 10 11  1  0  0  0  0
 11 13  2  0  0  0  0
 12 11  1  0  0  0  0
 13 14  1  0  0  0  0
 15 13  1  0  0  0  0
 15  8  2  0  0  0  0
 16  1  2  0  0  0  0
 17 18  1  0  0  0  0
 18 19  2  0  0  0  0
 18 23  1  0  0  0  0
 19 21  1  0  0  0  0
 21 22  1  0  0  0  0
 22 16  1  0  0  0  0
 23 20  1  0  0  0  0
 23 22  2  0  0  0  0
 24 10  2  0  0  0  0
 25 26  1  0  0  0  0
 26 27  2  0  0  0  0
 26 31  1  0  0  0  0
 27 29  1  0  0  0  0
 28 27  1  0  0  0  0
 29 30  2  0  0  0  0
 29 24  1  0  0  0  0
 31 30  1  0  0  0  0
 32 31  2  0  0  0  0
 32 19  1  0  0  0  0
 33 21  1  6  0  0  0
 33 30  1  0  0  0  0
 33  9  1  0  0  0  0
 33  2  1  0  0  0  0
 34 16  1  0  0  0  0
 34 37  1  0  0  0  0
 34 38  2  0  0  0  0
 35 36  1  0  0  0  0
 35 39  2  0  0  0  0
 35 44  1  0  0  0  0
 36 37  2  0  0  0  0
 36 40  1  0  0  0  0
 37 41  1  0  0  0  0
 38 39  1  0  0  0  0
 38 42  1  0  0  0  0
 39 43  1  0  0  0  0
 44 45  1  0  0  0  0
 44 46  1  0  0  0  0
 47  8  1  0  0  0  0
 47 50  1  0  0  0  0
 47 51  2  0  0  0  0
 48 49  1  0  0  0  0
 48 52  2  0  0  0  0
 48 57  1  0  0  0  0
 49 50  2  0  0  0  0
 49 53  1  0  0  0  0
 50 54  1  0  0  0  0
 51 52  1  0  0  0  0
 51 55  1  0  0  0  0
 52 56  1  0  0  0  0
 57 58  1  0  0  0  0
 57 59  1  0  0  0  0
 60 24  1  0  0  0  0
 60 63  1  0  0  0  0
 60 64  2  0  0  0  0
 61 62  1  0  0  0  0
 61 65  2  0  0  0  0
 61 70  1  0  0  0  0
 62 63  2  0  0  0  0
 62 66  1  0  0  0  0
 63 67  1  0  0  0  0
 64 65  1  0  0  0  0
 64 68  1  0  0  0  0
 65 69  1  0  0  0  0
 70 71  1  0  0  0  0
 70 72  1  0  0  0  0
 73 32  1  0  0  0  0
 73 76  1  0  0  0  0
 73 77  2  0  0  0  0
 74 75  1  0  0  0  0
 74 78  2  0  0  0  0
 74 83  1  0  0  0  0
 75 76  2  0  0  0  0
 75 79  1  0  0  0  0
 76 80  1  0  0  0  0
 77 78  1  0  0  0  0
 77 81  1  0  0  0  0
 78 82  1  0  0  0  0
 83 84  1  0  0  0  0
 83 85  1  0  0  0  0
M  END
