89
[[44,43],[42,38],[39,34],[40,35],[41,36],[58,57],[56,52],[53,48],[54,49],[55,50],[73,71],[70,66],[67,62],[68,63],[69,64],[86,85],[84,80],[81,76],[82,77],[83,78],[2,6],[5,4],[13,12],[11,10],[27,26],[24,25],[16,17],[19,22]]
C -0.5218465 1.8926277 -7.5020587
N 0.8606507 1.9747049 -7.5114249000000015
H -2.0666365 1.628847 -5.9000788
C 1.2305937 1.8512061 -6.1826265
C 0.07303430000000001 1.690557 -5.3413752
H 0.1101668 1.5738896999999998 -4.2617578
C -1.0155883 1.718143 -6.1605394
C 2.5297318 1.8822429 -5.7077965
N 3.626437600000002 2.2009771 -7.8861025
C 4.957098 2.3419869 -8.243353599999999
C 5.8083242 2.2793251 -7.0836645
H 6.891044 2.3658467 -7.1114647
C 4.9935204 2.0958683 -6.0069913
H 5.2614550000000015 2.0000067 -4.9584292
C 3.6448114 2.0495463 -6.5094975
C -1.3349062 1.9599358 -8.619437800000002
H -1.1661414 2.3989051 -13.2025601
C -0.8993091000000001 2.3191610000000003 -12.1523769
C 0.4499643 2.3576156000000004 -11.6506844
H -2.8003517 2.1002437 -11.0426239
N 0.4666381 2.2308982000000004 -10.2715868
C -0.8657374 2.1148354 -9.9117557
C -1.7164787 2.1701787999999995 -11.072157199999998
C 5.4250764 2.5145131000000003 -9.5338466
H 3.9852904 2.8248621 -13.8992891
C 4.0212656 2.7245502 -12.817998199999998
C 5.1075441 2.7310175 -11.9953092
H 6.1575095 2.8364493 -12.2540687
C 4.6132627 2.5641805 -10.65305
N 3.2324299 2.4574039 -10.6462352
C 2.8641816 2.5562056 -11.9775546
C 1.5662646999999998 2.5072996 -12.4542092
Co 2.0465432 2.2159811 -9.0788577
C -2.8568520520246428 1.848510500050824 -8.41239861038552
C -5.614339742951429 1.6477566172287217 -8.037576462001628
C -4.8257375713952895 0.4968291671040601 -8.045036995929356
C -3.4472021549782927 0.5970591071855945 -8.231801968007282
C -3.6453736295198302 2.9990113956424174 -8.405419278938727
C -5.024163543572686 2.8987214970651562 -8.21760471840234
H -6.701121691859754 1.5686385111952188 -7.889925485625953
H -5.291215265967252 -0.489161464758862 -7.902344390183555
H -2.8255472224157705 -0.31005590137672656 -8.237089317216924
H -5.645547763380213 3.80589840794114 -8.211952838387631
C -2.994203520752064 4.380265475022062 -8.604669592977286
H -3.4084990186991675 4.847916758606072 -9.473302960597364
H -3.183121455910328 4.990785703562663 -7.746498278892348
H -1.9385542475825408 4.2617851898101335 -8.732542240845225
C 2.747912839730957 1.7286364503868703 -4.1910888509986615
C 3.1420711666219363 1.4505380341711382 -1.443029060120594
C 4.163815145820973 1.114817668965116 -2.3318001877774583
C 3.9671493559806783 1.2543398086016342 -3.705533506022939
C 1.7263467310687917 2.0637667854181085 -3.3025182887051026
C 1.9235208572742808 1.9251035817814024 -1.9283680494982296
H 3.2973824907241043 1.3408692813682757 -0.35997474603274715
H 5.124604296578848 0.7414216684813697 -1.9488278328891468
H 4.772698783359561 0.9902862069961595 -4.4060377997490585
H 1.1180664216394889 2.1895586822500706 -1.2280631930590171
C 0.3806901727462906 2.587248876941132 -3.8380189487404768
H -0.4058543119424778 1.93118438378054 -3.5285200563036603
H 0.20003836498261893 3.568229732741993 -3.4508181934417204
H 0.4129726470215401 2.626139483617732 -4.906770436490083
C 6.9451757789685065 2.6530441992363425 -9.7380695482794
C 9.699230522211675 2.9029693484823778 -10.108544946914906
C 8.94524126104874 4.0086521854567785 -9.714148321585522
C 7.568594281610162 3.883742554118097 -9.528331831462944
C 7.6989560658496226 1.5478539952157568 -10.132831745109794
C 9.076139327353289 1.67266975173305 -10.317713575366662
H 10.784638895081782 3.0014784051600896 -10.254627525807589
H 9.436871232111098 4.978243184874024 -9.54861447186803
H 6.974388824351107 4.7551009944545575 -9.216891960833047
H 9.670185664033152 0.8011827215329648 -10.628743390770703
C 7.011293124608071 0.1895097955357361 -10.364363048476447
H 7.165740132459978 -0.12046498567086415 -11.376748432992404
H 7.428121956450374 -0.5389985613781327 -9.700727426427996
H 5.962255357131458 0.2842030871301509 -10.176380807467632
C 1.3499253644296085 2.633798833318096 -13.973681225361078
C 0.9572307888221913 2.863853998097218 -16.72638856931302
C 1.9757743245084571 2.0480455948429768 -16.232821192867327
C 2.1718329614121523 1.932468738027973 -14.856779735983041
C 0.3320159302014778 3.44973629797604 -14.467213126535595
C 0.13535567316184238 3.564500533745242 -15.843638901319478
H 0.8025030771170395 2.9545842820098915 -17.81127696947758
H 2.623055829479856 1.4952423539808337 -16.928984550287318
H 2.9742720355449466 1.2889820100543683 -14.46773370628125
H -0.6673151796138357 4.207667466210147 -16.232452531595026
C -0.5752370186243416 4.223842924370622 -13.492925156878343
H -0.48644501443906396 5.2735068565849215 -13.680499193997495
H -1.5915760309167548 3.9208572494090808 -13.63483228446741
H -0.27810730261869443 4.0149275928959405 -12.486519326141444