  90
 
 Rh        -2.0689667900        0.0051021440       -0.0050568593
 P         -0.4599584303        1.7551109405       -0.0670060398
 C          0.1166188782        1.9080219442       -1.7648096785
 C         -0.5596909641        1.3001751614       -2.7983310501
 C         -0.0846896848        1.4130829820       -4.0912134389
 C          1.0607967210        2.1402066358       -4.3426096849
 C          1.7295216531        2.7583587996       -3.3060224701
 C          1.2530712725        2.6428069304       -2.0130768603
 C         -1.2167370231        3.3132715860        0.4347485961
 C         -1.2701695316        4.3544705432       -0.4644089309
 C         -1.8719051294        5.5466715526       -0.1079427666
 C         -2.4194067564        5.6901396340        1.1502780187
 C         -2.3686023647        4.6447454388        2.0495288101
 C         -1.7680205134        3.4530911395        1.6887766993
 C          0.8949105690        1.3209322648        1.0422420016
 C          1.0792735992        1.9757556406        2.2572916557
 C          2.0879754728        1.5842403752        3.1084457409
 C          2.9359213655        0.5352270143        2.7814420377
 Cl         4.0337499013       -0.0568238886        3.9706472864
 C          2.8319085145       -0.0845140511        1.5346225026
 O          3.6813265297       -1.1242019131        1.1183499621
 C          5.0026259921       -1.0334488742        1.5896468229
 C          1.7848205403        0.3142940614        0.6764007319
 C          1.7898071672       -0.3279870897       -0.6626658668
 C          0.8951657055       -1.3264601829       -1.0379102728
 C          1.0833485055       -1.9793985687       -2.2533377142
 C          2.1043354690       -1.5956583267       -3.0929529802
 C          2.9609534265       -0.5568938837       -2.7554021711
 Cl         4.0778420587        0.0233787242       -3.9326040266
 C          2.8494190319        0.0639232277       -1.5097980022
 O          3.7016607260        1.0968436247       -1.0832321287
 C          5.0245194059        1.0042653515       -1.5495178710
 P         -0.4703814446       -1.7536020226        0.0603103783
 C          0.0950661094       -1.9162466145        1.7611046285
 C          1.2243384187       -2.6606198988        2.0135000924
 C          1.6935795015       -2.7824868353        3.3084924177
 C          1.0249924198       -2.1606847018        4.3429799103
 C         -0.1133278962       -1.4238301148        4.0874140105
 C         -0.5812544654       -1.3048268192        2.7925090986
 C         -1.2318539773       -3.3057451212       -0.4525048334
 C         -1.7793294953       -3.4354966925       -1.7092825381
 C         -2.3830369494       -4.6226859167       -2.0794693967
 C         -2.4404910393       -5.6735951141       -1.1869860169
 C         -1.8965968446       -5.5401125146        0.0738624516
 C         -1.2918398515       -4.3523617496        0.4398739029
 H         -1.4528098654        0.7338984381       -2.5933945921
 H         -0.6060013836        0.9302279169       -4.9010550209
 H          1.4376648891        2.2200675874       -5.3490497190
 H          2.6317068127        3.3145719294       -3.4997013957
 H          1.7837327096        3.0929302657       -1.1887308009
 H         -0.8440935546        4.2311824077       -1.4463695693
 H         -1.9130690692        6.3615433858       -0.8117951565
 H         -2.8876220801        6.6195438046        1.4302666522
 H         -2.7993841987        4.7560300712        3.0308016605
 H         -1.7410166420        2.6249850402        2.3780874032
 H          0.4317392809        2.7903167913        2.5272092057
 H          2.2160843161        2.0691018530        4.0614231932
 H          5.0654121977       -1.4932396823        2.5768422529
 H          5.6564907732       -1.5692040267        0.8998427071
 H          5.3047884935        0.0143075106        1.6392538028
 H          0.4306255178       -2.7870601218       -2.5313874964
 H          2.2371169217       -2.0798411576       -4.0456582501
 H          5.0924312532        1.4683350642       -2.5344042234
 H          5.6771297401        1.5350870146       -0.8546882708
 H          5.3239929386       -0.0440792983       -1.6028219119
 H          1.7559135333       -3.1126192008        1.1907710903
 H          2.5905239109       -3.3460118899        3.5053063230
 H          1.3967918280       -2.2447736231        5.3509503678
 H         -0.6342281142       -0.9377037754        4.8955445325
 H         -1.4686131760       -0.7307984321        2.5842981794
 H         -1.7457114337       -2.6035901904       -2.3937686863
 H         -2.8105656406       -4.7263526330       -3.0629554461
 H         -2.9108891952       -6.5995656996       -1.4745484756
 H         -1.9424221229       -6.3594940139        0.7721559754
 H         -0.8686257687       -4.2366901402        1.4240028411
 C         -5.7149825800        0.0089925870        0.0050730254
 C         -4.6100677419        0.6260169575       -0.9594080190
 C         -4.6058440097       -0.6101596481        0.9632204868
 H         -6.3369127109       -0.7484125178       -0.4803871213
 H         -6.3327775443        0.7675824338        0.4939450386
 C         -3.7728321994        1.4122080749        0.0896376991
 C         -3.7748354690       -0.6555894980       -1.2487731838
 H         -4.9747925094        1.1925725519       -1.8337132454
 C         -3.7663014259        0.6697339344        1.2477064509
 C         -3.7765741366       -1.3982194842       -0.0907911987
 H         -4.9667867505       -1.1759141488        1.8396198254
 H         -3.3979356038        2.4302378697       -0.0296359584
 H         -3.3985193724       -0.9725460288       -2.2244686663
 H         -3.3846839266        0.9863972193        2.2215276911
 H         -3.4064111777       -2.4184122397        0.0239650603
          90
       -141.66406219
 Rh        -2.0794893682       -0.0007036308       -0.0026926235
 P         -0.4809286512        1.7284746131        0.3232770664
 C          0.0929768580        2.2575253345       -1.2986414183
 C         -0.5837810549        1.8944091830       -2.4410286734
 C         -0.1107243245        2.2936712860       -3.6766636875
 C          1.0335094726        3.0604371611       -3.7606172813
 C          1.7028529945        3.4328314844       -2.6129334827
 C          1.2282397043        3.0307727228       -1.3779538717
 C         -1.2418174969        3.1325050841        1.1616561625
 C         -1.2970335697        4.3481799208        0.5180360688
 C         -1.9028732085        5.4289255984        1.1308507903
 C         -2.4524482439        5.2857732392        2.3882006596
 C         -2.3991193425        4.0660980199        3.0313391732
 C         -1.7940863048        2.9870001829        2.4145811615
 C          0.8753177354        1.0626381452        1.3090128225
 C          1.0586949665        1.4317368511        2.6391511531
 C          2.0702071869        0.8651710077        3.3814941483
 C          2.9220122253       -0.0812006907        2.8290618218
 Cl         4.0226397975       -0.9196922254        3.8562372949
 C          2.8187946680       -0.4086837009        1.4757113024
 O          3.6798044048       -1.3172558548        0.8356380169
 C          5.0008620487       -1.3250642390        1.3169782466
 C          1.7688566138        0.1663971529        0.7281166006
 C          1.7746000445       -0.1620803087       -0.7202337954
 C          0.8835574740       -1.0560126564       -1.3076589586
 C          1.0727142124       -1.4215732271       -2.6379184688
 C          2.0909199226       -0.8563469471       -3.3716766933
 C          2.9437197309        0.0850831028       -2.8120264542
 Cl         4.0547054620        0.9194429807       -3.8314013281
 C          2.8313859337        0.4129502347       -1.4595221790
 O          3.6873433014        1.3205268322       -0.8118311405
 C          5.0094991104        1.3374517950       -1.2898307448
 P         -0.4765884481       -1.7252088904       -0.3299937155
 C          0.0917961056       -2.2595303082        1.2922887899
 C          1.2266156601       -3.0333528839        1.3726263445
 C          1.6980809354       -3.4384940584        2.6078147890
 C          1.0261081339       -3.0685541811        3.7547475035
 C         -0.1176024415       -2.3011371206        3.6697886927
 C         -0.5874701923       -1.8988046258        2.4339439271
 C         -1.2308554962       -3.1275515418       -1.1771698616
 C         -1.7816701480       -2.9765386625       -2.4300590644
 C         -2.3808552731       -4.0543686603       -3.0546994044
 C         -2.4297728100       -5.2783324086       -2.4194141881
 C         -1.8816420210       -5.4270346132       -1.1620637873
 C         -1.2816514384       -4.3475309661       -0.5413736886
 H         -1.4758169520        1.2951429163       -2.3666973214
 H         -0.6323399745        2.0026935825       -4.5733362228
 H          1.4092057677        3.3632028713       -4.7242177292
 H          2.6042099757        4.0194394351       -2.6785172868
 H          1.7600461169        3.2857857033       -0.4746595645
 H         -0.8693394810        4.4484549048       -0.4658735679
 H         -1.9450673912        6.3807029015        0.6274694389
 H         -2.9243346528        6.1274593797        2.8680744215
 H         -2.8311513965        3.9539522310        4.0119370411
 H         -1.7639180728        2.0263138912        2.9021959569
 H          0.4093787702        2.1641923343        3.0836001954
 H          2.1971676581        1.1261327754        4.4185396555
 H          5.0681698835       -1.9966856629        2.1739840386
 H          5.6583013994       -1.6870056464        0.5250036820
 H          5.2952247271       -0.3137756303        1.6033282733
 H          0.4239995399       -2.1510077863       -3.0882001858
 H          2.2238602734       -1.1155905258       -4.4084259077
 H          5.0751371165        2.0125154642       -2.1442852859
 H          5.6629906298        1.7003673004       -0.4950239324
 H          5.3102769579        0.3287979150       -1.5788395361
 H          1.7608571983       -3.2860399318        0.4701146335
 H          2.5993588759       -4.0251341164        2.6742674170
 H          1.3995191046       -3.3734806996        4.7185603576
 H         -0.6411776520       -2.0119013877        4.5658867556
 H         -1.4788583205       -1.2987199002        2.3589598525
 H         -1.7544089039       -2.0126688009       -2.9115725027
 H         -2.8116843226       -3.9379545211       -4.0353323684
 H         -2.8970281521       -6.1191040547       -2.9053888924
 H         -1.9206123817       -6.3821130379       -0.6647060927
 H         -0.8549387125       -4.4522843692        0.4424778442
 C         -5.7250957248       -0.0142327551        0.0096524294
 C         -4.6239004839        0.8049542307       -0.7951366322
 C         -4.6124223009       -0.8252911637        0.8068778363
 H         -6.3450529067       -0.6479020102       -0.6307155429
 H         -6.3452740065        0.6148199930        0.6543412364
 C         -3.7887149219        1.3435341392        0.4015015878
 C         -3.7839475596       -0.3776585330       -1.3604911153
 H         -4.9921587974        1.5490678982       -1.5223385301
 C         -3.7774205931        0.3635625440        1.3665729540
 C         -3.7814332135       -1.3576611751       -0.3954251523
 H         -4.9700576526       -1.5721778812        1.5365402782
 H         -3.4177522105        2.3641505116        0.5096348998
 H         -3.4048990693       -0.4696703618       -2.3811042580
 H         -3.3928987479        0.4586362251        2.3848489531
 H         -3.4037116757       -2.3756142459       -0.5055208765
