89
[[41,37],[42,38],[46,43],[39,35],[40,36],[55,51],[56,52],[60,57],[53,49],[54,50],[68,64],[67,63],[73,71],[70,66],[69,65],[83,79],[84,80],[86,85],[81,77],[82,78],[2,6],[5,4],[13,12],[11,10],[27,26],[24,25],[16,17],[19,22]]
C -0.5218465 1.8926277 -7.5020587
N 0.8606507 1.9747049 -7.5114249000000015
H -2.0666365 1.628847 -5.9000788
C 1.2305937 1.8512061 -6.1826265
C 0.07303430000000001 1.690557 -5.3413752
H 0.1101668 1.5738896999999998 -4.2617578
C -1.0155883 1.718143 -6.1605394
C 2.5297318 1.8822429 -5.7077965
N 3.626437600000002 2.2009771 -7.8861025
C 4.957098 2.3419869 -8.243353599999999
C 5.8083242 2.2793251 -7.0836645
H 6.891044 2.3658467 -7.1114647
C 4.9935204 2.0958683 -6.0069913
H 5.2614550000000015 2.0000067 -4.9584292
C 3.6448114 2.0495463 -6.5094975
C -1.3349062 1.9599358 -8.619437800000002
H -1.1661414 2.3989051 -13.2025601
C -0.8993091000000001 2.3191610000000003 -12.1523769
C 0.4499643 2.3576156000000004 -11.6506844
H -2.8003517 2.1002437 -11.0426239
N 0.4666381 2.2308982000000004 -10.2715868
C -0.8657374 2.1148354 -9.9117557
C -1.7164787 2.1701787999999995 -11.072157199999998
C 5.4250764 2.5145131000000003 -9.5338466
H 3.9852904 2.8248621 -13.8992891
C 4.0212656 2.7245502 -12.817998199999998
C 5.1075441 2.7310175 -11.9953092
H 6.1575095 2.8364493 -12.2540687
C 4.6132627 2.5641805 -10.65305
N 3.2324299 2.4574039 -10.6462352
C 2.8641816 2.5562056 -11.9775546
C 1.5662646999999998 2.5072996 -12.4542092
Co 2.0465432 2.2159811 -9.0788577
C -2.8568520520246428 1.848510500050824 -8.41239861038552
C -5.614339742951429 1.6477566172287217 -8.037576462001628
C -4.8257375713952895 0.4968291671040601 -8.045036995929356
C -3.4472021549782927 0.5970591071855945 -8.231801968007282
C -3.6453736295198302 2.9990113956424174 -8.405419278938727
C -5.024163543572686 2.8987214970651562 -8.21760471840234
H -5.291215265967252 -0.489161464758862 -7.902344390183555
H -2.8255472224157705 -0.31005590137672656 -8.237089317216924
H -3.1803468579125247 3.9854176239968533 -8.547682993047646
H -5.645547763380213 3.80589840794114 -8.211952838387631
C -7.136378788066679 1.5369569989270664 -7.83075131911793
H -7.482566286860278 0.6034383069277056 -8.222777615897666
H -7.359078442522664 1.5894899474329698 -6.785529020644318
H -7.6249769588506915 2.3409835963700334 -8.340369017113991
C 2.747912839730957 1.7286364503868703 -4.1910888509986615
C 3.1420711666219363 1.4505380341711382 -1.443029060120594
C 4.163815145820973 1.114817668965116 -2.3318001877774583
C 3.9671493559806783 1.2543398086016342 -3.705533506022939
C 1.7263467310687917 2.0637667854181085 -3.3025182887051026
C 1.9235208572742808 1.9251035817814024 -1.9283680494982296
H 5.124604296578848 0.7414216684813697 -1.9488278328891468
H 4.772698783359561 0.9902862069961595 -4.4060377997490585
H 0.7653742410530971 2.437630931337264 -3.684936363368392
H 1.1180664216394889 2.1895586822500706 -1.2280631930590171
C 3.35959701764754 1.2969844725705897 0.07379652571825712
H 4.0417973343681 0.4931589030488194 0.2567028723806097
H 3.763821653040573 2.2050313178552634 0.469899884590562
H 2.4242334330535624 1.085979602555116 0.548632338863452
C 6.9451757789685065 2.6530441992363425 -9.7380695482794
C 9.699230522211675 2.9029693484823778 -10.108544946914906
C 8.94524126104874 4.0086521854567785 -9.714148321585522
C 7.568594281610162 3.883742554118097 -9.528331831462944
C 7.6989560658496226 1.5478539952157568 -10.132831745109794
C 9.076139327353289 1.67266975173305 -10.317713575366662
H 9.436871232111098 4.978243184874024 -9.54861447186803
H 6.974388824351107 4.7551009944545575 -9.216891960833047
H 7.207876349259792 0.5778040943326417 -10.298149656271024
H 9.670185664033152 0.8011827215329648 -10.628743390770703
C 11.219356907266825 3.040919886322817 -10.313096829254588
H 11.447624430081587 4.037108327375489 -10.630098529472518
H 11.723327516790555 2.8354225445480177 -9.391886230498924
H 11.543241756382635 2.3460708671091077 -11.059542128664377
C 1.3499253644296085 2.633798833318096 -13.973681225361078
C 0.9572307888221913 2.863853998097218 -16.72638856931302
C 1.9757743245084571 2.0480455948429768 -16.232821192867327
C 2.1718329614121523 1.932468738027973 -14.856779735983041
C 0.3320159302014778 3.44973629797604 -14.467213126535595
C 0.13535567316184238 3.564500533745242 -15.843638901319478
H 2.623055829479856 1.4952423539808337 -16.928984550287318
H 2.9742720355449466 1.2889820100543683 -14.46773370628125
H -0.31590467130860667 4.002532257073504 -13.771439002451977
H -0.6673151796138357 4.207667466210147 -16.232452531595026
C 0.7405067371324003 2.9908929940442084 -18.245779180356784
H 1.6755280174653808 2.8666567323988064 -18.75103961480307
H 0.05544817364961774 2.236775727141729 -18.572652875166327
H 0.34002093756192475 3.957619307102459 -18.469270790899998