[[41,37],[42,38],[46,43],[39,35],[40,36],[55,51],[56,52],[60,57],[53,49],[54,50],[68,64],[67,63],[73,71],[70,66],[69,65],[83,79],[84,80],[86,85],[81,77],[82,78],[2,6],[5,4],[13,12],[11,10],[27,26],[24,25],[16,17],[19,22]]
 OpenBabel11232011153D

 89100  0  0  0  0  0  0  0  0999 V2000
   -0.5218    1.8926   -7.5021 C   0  0  0  0  0  0  0  0  0  0  0  0
    0.8607    1.9747   -7.5114 N   0  0  0  0  0  4  0  0  0  0  0  0
   -2.0666    1.6288   -5.9001 H   0  0  0  0  0  0  0  0  0  0  0  0
    1.2306    1.8512   -6.1826 C   0  0  0  0  0  0  0  0  0  0  0  0
    0.0730    1.6906   -5.3414 C   0  0  0  0  0  0  0  0  0  0  0  0
    0.1102    1.5739   -4.2618 H   0  0  0  0  0  0  0  0  0  0  0  0
   -1.0156    1.7181   -6.1605 C   0  0  0  0  0  0  0  0  0  0  0  0
    2.5297    1.8822   -5.7078 C   0  0  0  0  0  0  0  0  0  0  0  0
    3.6264    2.2010   -7.8861 N   0  0  0  0  0  0  0  0  0  0  0  0
    4.9571    2.3420   -8.2434 C   0  0  0  0  0  0  0  0  0  0  0  0
    5.8083    2.2793   -7.0837 C   0  0  0  0  0  0  0  0  0  0  0  0
    6.8910    2.3658   -7.1115 H   0  0  0  0  0  0  0  0  0  0  0  0
    4.9935    2.0959   -6.0070 C   0  0  0  0  0  0  0  0  0  0  0  0
    5.2615    2.0000   -4.9584 H   0  0  0  0  0  0  0  0  0  0  0  0
    3.6448    2.0495   -6.5095 C   0  0  0  0  0  0  0  0  0  0  0  0
   -1.3349    1.9599   -8.6194 C   0  0  0  0  0  0  0  0  0  0  0  0
   -1.1661    2.3989  -13.2026 H   0  0  0  0  0  0  0  0  0  0  0  0
   -0.8993    2.3192  -12.1524 C   0  0  0  0  0  0  0  0  0  0  0  0
    0.4500    2.3576  -11.6507 C   0  0  0  0  0  0  0  0  0  0  0  0
   -2.8004    2.1002  -11.0426 H   0  0  0  0  0  0  0  0  0  0  0  0
    0.4666    2.2309  -10.2716 N   0  0  0  0  0  0  0  0  0  0  0  0
   -0.8657    2.1148   -9.9118 C   0  0  0  0  0  0  0  0  0  0  0  0
   -1.7165    2.1702  -11.0722 C   0  0  0  0  0  0  0  0  0  0  0  0
    5.4251    2.5145   -9.5338 C   0  0  0  0  0  0  0  0  0  0  0  0
    3.9853    2.8249  -13.8993 H   0  0  0  0  0  0  0  0  0  0  0  0
    4.0213    2.7246  -12.8180 C   0  0  0  0  0  0  0  0  0  0  0  0
    5.1075    2.7310  -11.9953 C   0  0  0  0  0  0  0  0  0  0  0  0
    6.1575    2.8364  -12.2541 H   0  0  0  0  0  0  0  0  0  0  0  0
    4.6133    2.5642  -10.6531 C   0  0  0  0  0  0  0  0  0  0  0  0
    3.2324    2.4574  -10.6462 N   0  0  0  0  0  4  0  0  0  0  0  0
    2.8642    2.5562  -11.9776 C   0  0  0  0  0  0  0  0  0  0  0  0
    1.5663    2.5073  -12.4542 C   0  0  0  0  0  0  0  0  0  0  0  0
    2.0465    2.2160   -9.0789 Co  0  0  1  0  0  0  0  0  0  0  0  0
   -2.8050    1.8491   -8.4197 C   0  0  0  0  0  0  0  0  0  0  0  0
   -5.5811    1.6405   -8.0321 C   0  0  0  0  0  0  0  0  0  0  0  0
   -4.7763    0.4899   -8.0182 C   0  0  0  0  0  0  0  0  0  0  0  0
   -3.3951    0.5947   -8.2049 C   0  0  0  0  0  0  0  0  0  0  0  0
   -3.6087    2.9984   -8.4405 C   0  0  0  0  0  0  0  0  0  0  0  0
   -4.9883    2.8947   -8.2417 C   0  0  0  0  0  0  0  0  0  0  0  0
   -5.2153   -0.4875   -7.8610 H   0  0  0  0  0  0  0  0  0  0  0  0
   -2.7849   -0.3002   -8.1912 H   0  0  0  0  0  0  0  0  0  0  0  0
   -3.1636    3.9729   -8.5994 H   0  0  0  0  0  0  0  0  0  0  0  0
   -5.5957    3.7913   -8.2514 H   0  0  0  0  0  0  0  0  0  0  0  0
   -7.0635    1.5437   -7.8247 C   0  0  0  0  0  0  0  0  0  0  0  0
   -7.3874    0.4907   -7.6824 H   0  0  0  0  0  0  0  0  0  0  0  0
   -7.3522    2.1249   -6.9237 H   0  0  0  0  0  0  0  0  0  0  0  0
   -7.5920    1.9575   -8.7091 H   0  0  0  0  0  0  0  0  0  0  0  0
    2.7415    1.7341   -4.2255 C   0  0  0  0  0  0  0  0  0  0  0  0
    3.1361    1.4512   -1.4459 C   0  0  0  0  0  0  0  0  0  0  0  0
    3.6949    0.5242   -2.3375 C   0  0  0  0  0  0  0  0  0  0  0  0
    3.5018    0.6651   -3.7145 C   0  0  0  0  0  0  0  0  0  0  0  0
    2.1841    2.6598   -3.3241 C   0  0  0  0  0  0  0  0  0  0  0  0
    2.3811    2.5203   -1.9478 C   0  0  0  0  0  0  0  0  0  0  0  0
    4.2800   -0.3098   -1.9695 H   0  0  0  0  0  0  0  0  0  0  0  0
    3.9367   -0.0652   -4.3855 H   0  0  0  0  0  0  0  0  0  0  0  0
    1.6013    3.4964   -3.6906 H   0  0  0  0  0  0  0  0  0  0  0  0
    1.9452    3.2457   -1.2722 H   0  0  0  0  0  0  0  0  0  0  0  0
    3.3357    1.3124    0.0342 C   0  0  0  0  0  0  0  0  0  0  0  0
    3.9491    0.4196    0.2808 H   0  0  0  0  0  0  0  0  0  0  0  0
    3.8521    2.2133    0.4272 H   0  0  0  0  0  0  0  0  0  0  0  0
    2.3501    1.2105    0.5354 H   0  0  0  0  0  0  0  0  0  0  0  0
    6.8923    2.6486   -9.7349 C   0  0  0  0  0  0  0  0  0  0  0  0
    9.6636    2.9055  -10.1252 C   0  0  0  0  0  0  0  0  0  0  0  0
    8.9000    4.0131   -9.7227 C   0  0  0  0  0  0  0  0  0  0  0  0
    7.5224    3.8837   -9.5239 C   0  0  0  0  0  0  0  0  0  0  0  0
    7.6530    1.5425  -10.1410 C   0  0  0  0  0  0  0  0  0  0  0  0
    9.0320    1.6696  -10.3301 C   0  0  0  0  0  0  0  0  0  0  0  0
    9.3685    4.9761   -9.5622 H   0  0  0  0  0  0  0  0  0  0  0  0
    6.9438    4.7457   -9.2151 H   0  0  0  0  0  0  0  0  0  0  0  0
    7.1775    0.5830  -10.3036 H   0  0  0  0  0  0  0  0  0  0  0  0
    9.6082    0.8059  -10.6383 H   0  0  0  0  0  0  0  0  0  0  0  0
   11.1431    3.0290  -10.3390 C   0  0  0  0  0  0  0  0  0  0  0  0
   11.4976    4.0644  -10.1487 H   0  0  0  0  0  0  0  0  0  0  0  0
   11.6780    2.3418   -9.6503 H   0  0  0  0  0  0  0  0  0  0  0  0
   11.3922    2.7599  -11.3872 H   0  0  0  0  0  0  0  0  0  0  0  0
    1.3560    2.6328  -13.9372 C   0  0  0  0  0  0  0  0  0  0  0  0
    0.9681    2.8686  -16.7209 C   0  0  0  0  0  0  0  0  0  0  0  0
    1.7098    1.8002  -16.1984 C   0  0  0  0  0  0  0  0  0  0  0  0
    1.9050    1.6846  -14.8196 C   0  0  0  0  0  0  0  0  0  0  0  0
    0.6100    3.7015  -14.4679 C   0  0  0  0  0  0  0  0  0  0  0  0
    0.4203    3.8197  -15.8475 C   0  0  0  0  0  0  0  0  0  0  0  0
    2.1372    1.0567  -16.8598 H   0  0  0  0  0  0  0  0  0  0  0  0
    2.4781    0.8491  -14.4359 H   0  0  0  0  0  0  0  0  0  0  0  0
    0.1837    4.4493  -13.8104 H   0  0  0  0  0  0  0  0  0  0  0  0
   -0.1535    4.6539  -16.2317 H   0  0  0  0  0  0  0  0  0  0  0  0
    0.7704    2.9818  -18.2035 C   0  0  0  0  0  0  0  0  0  0  0  0
    1.7572    3.0596  -18.7065 H   0  0  0  0  0  0  0  0  0  0  0  0
    0.2410    2.0808  -18.5788 H   0  0  0  0  0  0  0  0  0  0  0  0
    0.1697    3.8782  -18.4674 H   0  0  0  0  0  0  0  0  0  0  0  0
  1  7  1  0  0  0  0
  2  1  1  0  0  0  0
  2  4  2  0  0  0  0
  4  8  1  0  0  0  0
  4  5  1  0  0  0  0
  5  6  1  0  0  0  0
  7  3  1  0  0  0  0
  7  5  2  0  0  0  0
  9 15  1  0  0  0  0
 10  9  1  0  0  0  0
 10 11  1  0  0  0  0
 11 13  2  0  0  0  0
 12 11  1  0  0  0  0
 13 14  1  0  0  0  0
 15 13  1  0  0  0  0
 15  8  2  0  0  0  0
 16  1  2  0  0  0  0
 17 18  1  0  0  0  0
 18 19  2  0  0  0  0
 18 23  1  0  0  0  0
 19 21  1  0  0  0  0
 21 22  1  0  0  0  0
 22 16  1  0  0  0  0
 23 20  1  0  0  0  0
 23 22  2  0  0  0  0
 24 10  2  0  0  0  0
 25 26  1  0  0  0  0
 26 27  2  0  0  0  0
 26 31  1  0  0  0  0
 27 29  1  0  0  0  0
 28 27  1  0  0  0  0
 29 30  2  0  0  0  0
 29 24  1  0  0  0  0
 31 30  1  0  0  0  0
 32 31  2  0  0  0  0
 32 19  1  0  0  0  0
 33 21  1  6  0  0  0
 33 30  1  0  0  0  0
 33  9  1  0  0  0  0
 33  2  1  0  0  0  0
 34 16  1  0  0  0  0
 34 37  1  0  0  0  0
 34 38  2  0  0  0  0
 35 36  1  0  0  0  0
 35 39  2  0  0  0  0
 35 44  1  0  0  0  0
 36 37  2  0  0  0  0
 36 40  1  0  0  0  0
 37 41  1  0  0  0  0
 38 39  1  0  0  0  0
 38 42  1  0  0  0  0
 39 43  1  0  0  0  0
 44 45  1  0  0  0  0
 44 46  1  0  0  0  0
 44 47  1  0  0  0  0
 48  8  1  0  0  0  0
 48 51  1  0  0  0  0
 48 52  2  0  0  0  0
 49 50  1  0  0  0  0
 49 53  2  0  0  0  0
 49 58  1  0  0  0  0
 50 51  2  0  0  0  0
 50 54  1  0  0  0  0
 51 55  1  0  0  0  0
 52 53  1  0  0  0  0
 52 56  1  0  0  0  0
 53 57  1  0  0  0  0
 58 59  1  0  0  0  0
 58 60  1  0  0  0  0
 58 61  1  0  0  0  0
 62 24  1  0  0  0  0
 62 65  1  0  0  0  0
 62 66  2  0  0  0  0
 63 64  1  0  0  0  0
 63 67  2  0  0  0  0
 63 72  1  0  0  0  0
 64 65  2  0  0  0  0
 64 68  1  0  0  0  0
 65 69  1  0  0  0  0
 66 67  1  0  0  0  0
 66 70  1  0  0  0  0
 67 71  1  0  0  0  0
 72 73  1  0  0  0  0
 72 74  1  0  0  0  0
 72 75  1  0  0  0  0
 76 32  1  0  0  0  0
 76 79  1  0  0  0  0
 76 80  2  0  0  0  0
 77 78  1  0  0  0  0
 77 81  2  0  0  0  0
 77 86  1  0  0  0  0
 78 79  2  0  0  0  0
 78 82  1  0  0  0  0
 79 83  1  0  0  0  0
 80 81  1  0  0  0  0
 80 84  1  0  0  0  0
 81 85  1  0  0  0  0
 86 87  1  0  0  0  0
 86 88  1  0  0  0  0
 86 89  1  0  0  0  0
M  END
