[[40,36],[45,43],[39,34],[42,38],[41,37],[54,50],[58,57],[53,48],[56,52],[55,51],[68,64],[73,71],[67,62],[70,66],[69,65],[82,78],[86,85],[81,76],[84,80],[83,79],[2,6],[5,4],[13,12],[11,10],[27,26],[24,25],[16,17],[19,22]]
 OpenBabel11232011493D

 89100  0  0  0  0  0  0  0  0999 V2000
   -0.5218    1.8926   -7.5021 C   0  0  0  0  0  0  0  0  0  0  0  0
    0.8607    1.9747   -7.5114 N   0  0  0  0  0  4  0  0  0  0  0  0
   -2.0666    1.6288   -5.9001 H   0  0  0  0  0  0  0  0  0  0  0  0
    1.2306    1.8512   -6.1826 C   0  0  0  0  0  0  0  0  0  0  0  0
    0.0730    1.6906   -5.3414 C   0  0  0  0  0  0  0  0  0  0  0  0
    0.1102    1.5739   -4.2618 H   0  0  0  0  0  0  0  0  0  0  0  0
   -1.0156    1.7181   -6.1605 C   0  0  0  0  0  0  0  0  0  0  0  0
    2.5297    1.8822   -5.7078 C   0  0  0  0  0  0  0  0  0  0  0  0
    3.6264    2.2010   -7.8861 N   0  0  0  0  0  0  0  0  0  0  0  0
    4.9571    2.3420   -8.2434 C   0  0  0  0  0  0  0  0  0  0  0  0
    5.8083    2.2793   -7.0837 C   0  0  0  0  0  0  0  0  0  0  0  0
    6.8910    2.3658   -7.1115 H   0  0  0  0  0  0  0  0  0  0  0  0
    4.9935    2.0959   -6.0070 C   0  0  0  0  0  0  0  0  0  0  0  0
    5.2615    2.0000   -4.9584 H   0  0  0  0  0  0  0  0  0  0  0  0
    3.6448    2.0495   -6.5095 C   0  0  0  0  0  0  0  0  0  0  0  0
   -1.3349    1.9599   -8.6194 C   0  0  0  0  0  0  0  0  0  0  0  0
   -1.1661    2.3989  -13.2026 H   0  0  0  0  0  0  0  0  0  0  0  0
   -0.8993    2.3192  -12.1524 C   0  0  0  0  0  0  0  0  0  0  0  0
    0.4500    2.3576  -11.6507 C   0  0  0  0  0  0  0  0  0  0  0  0
   -2.8004    2.1002  -11.0426 H   0  0  0  0  0  0  0  0  0  0  0  0
    0.4666    2.2309  -10.2716 N   0  0  0  0  0  0  0  0  0  0  0  0
   -0.8657    2.1148   -9.9118 C   0  0  0  0  0  0  0  0  0  0  0  0
   -1.7165    2.1702  -11.0722 C   0  0  0  0  0  0  0  0  0  0  0  0
    5.4251    2.5145   -9.5338 C   0  0  0  0  0  0  0  0  0  0  0  0
    3.9853    2.8249  -13.8993 H   0  0  0  0  0  0  0  0  0  0  0  0
    4.0213    2.7246  -12.8180 C   0  0  0  0  0  0  0  0  0  0  0  0
    5.1075    2.7310  -11.9953 C   0  0  0  0  0  0  0  0  0  0  0  0
    6.1575    2.8364  -12.2541 H   0  0  0  0  0  0  0  0  0  0  0  0
    4.6133    2.5642  -10.6531 C   0  0  0  0  0  0  0  0  0  0  0  0
    3.2324    2.4574  -10.6462 N   0  0  0  0  0  4  0  0  0  0  0  0
    2.8642    2.5562  -11.9776 C   0  0  0  0  0  0  0  0  0  0  0  0
    1.5663    2.5073  -12.4542 C   0  0  0  0  0  0  0  0  0  0  0  0
    2.0465    2.2160   -9.0789 Co  0  0  1  0  0  0  0  0  0  0  0  0
   -2.8116    1.8455   -8.4309 C   0  0  0  0  0  0  0  0  0  0  0  0
   -5.5914    1.6225   -8.1224 C   0  0  0  0  0  0  0  0  0  0  0  0
   -4.7761    0.5025   -7.9027 C   0  0  0  0  0  0  0  0  0  0  0  0
   -3.3842    0.6210   -8.0476 C   0  0  0  0  0  0  0  0  0  0  0  0
   -3.6425    2.9549   -8.6582 C   0  0  0  0  0  0  0  0  0  0  0  0
   -5.0250    2.8437   -8.4955 C   0  0  0  0  0  0  0  0  0  0  0  0
   -6.6661    1.5470   -8.0102 H   0  0  0  0  0  0  0  0  0  0  0  0
   -2.7459   -0.2396   -7.8852 H   0  0  0  0  0  0  0  0  0  0  0  0
   -3.2157    3.9056   -8.9537 H   0  0  0  0  0  0  0  0  0  0  0  0
   -5.6593    3.7042   -8.6649 H   0  0  0  0  0  0  0  0  0  0  0  0
   -5.4009   -0.8091   -7.5297 C   0  0  0  0  0  0  0  0  0  0  0  0
   -5.9625   -0.7021   -6.5787 H   0  0  0  0  0  0  0  0  0  0  0  0
   -6.1013   -1.1253   -8.3322 H   0  0  0  0  0  0  0  0  0  0  0  0
   -4.6357   -1.6043   -7.4034 H   0  0  0  0  0  0  0  0  0  0  0  0
    2.7402    1.7689   -4.2185 C   0  0  0  0  0  0  0  0  0  0  0  0
    3.1447    1.5954   -1.4372 C   0  0  0  0  0  0  0  0  0  0  0  0
    3.7397    0.6525   -2.2856 C   0  0  0  0  0  0  0  0  0  0  0  0
    3.5350    0.7411   -3.6726 C   0  0  0  0  0  0  0  0  0  0  0  0
    2.1538    2.7052   -3.3447 C   0  0  0  0  0  0  0  0  0  0  0  0
    2.3548    2.6167   -1.9661 C   0  0  0  0  0  0  0  0  0  0  0  0
    3.2948    1.5402   -0.3659 H   0  0  0  0  0  0  0  0  0  0  0  0
    3.9903    0.0106   -4.3307 H   0  0  0  0  0  0  0  0  0  0  0  0
    1.5465    3.5129   -3.7352 H   0  0  0  0  0  0  0  0  0  0  0  0
    1.9002    3.3446   -1.3067 H   0  0  0  0  0  0  0  0  0  0  0  0
    4.5898   -0.4368   -1.7014 C   0  0  0  0  0  0  0  0  0  0  0  0
    5.4428    0.0126   -1.1503 H   0  0  0  0  0  0  0  0  0  0  0  0
    3.9842   -1.0466   -0.9986 H   0  0  0  0  0  0  0  0  0  0  0  0
    4.9951   -1.1058   -2.4899 H   0  0  0  0  0  0  0  0  0  0  0  0
    6.8959    2.6531   -9.7430 C   0  0  0  0  0  0  0  0  0  0  0  0
    9.6520    2.9319  -10.1848 C   0  0  0  0  0  0  0  0  0  0  0  0
    8.9375    3.9730   -9.5739 C   0  0  0  0  0  0  0  0  0  0  0  0
    7.5598    3.8250   -9.3444 C   0  0  0  0  0  0  0  0  0  0  0  0
    7.6228    1.6239  -10.3634 C   0  0  0  0  0  0  0  0  0  0  0  0
    8.9964    1.7614  -10.5743 C   0  0  0  0  0  0  0  0  0  0  0  0
   10.7155    3.0305  -10.3645 H   0  0  0  0  0  0  0  0  0  0  0  0
    6.9972    4.6253   -8.8781 H   0  0  0  0  0  0  0  0  0  0  0  0
    7.1240    0.7146  -10.6760 H   0  0  0  0  0  0  0  0  0  0  0  0
    9.5526    0.9621  -11.0467 H   0  0  0  0  0  0  0  0  0  0  0  0
    9.6498    5.2350   -9.1869 C   0  0  0  0  0  0  0  0  0  0  0  0
   10.4547    5.0054   -8.4584 H   0  0  0  0  0  0  0  0  0  0  0  0
   10.0993    5.6968  -10.0920 H   0  0  0  0  0  0  0  0  0  0  0  0
    8.9554    5.9717   -8.7297 H   0  0  0  0  0  0  0  0  0  0  0  0
    1.3539    2.6459  -13.9397 C   0  0  0  0  0  0  0  0  0  0  0  0
    0.9631    2.9192  -16.7147 C   0  0  0  0  0  0  0  0  0  0  0  0
    1.7408    1.8609  -16.2224 C   0  0  0  0  0  0  0  0  0  0  0  0
    1.9330    1.7291  -14.8389 C   0  0  0  0  0  0  0  0  0  0  0  0
    0.5770    3.7005  -14.4565 C   0  0  0  0  0  0  0  0  0  0  0  0
    0.3848    3.8338  -15.8332 C   0  0  0  0  0  0  0  0  0  0  0  0
    0.8041    3.0382  -17.7792 H   0  0  0  0  0  0  0  0  0  0  0  0
    2.5299    0.9075  -14.4597 H   0  0  0  0  0  0  0  0  0  0  0  0
    0.1265    4.4260  -13.7900 H   0  0  0  0  0  0  0  0  0  0  0  0
   -0.2127    4.6504  -16.2177 H   0  0  0  0  0  0  0  0  0  0  0  0
    2.3686    0.8703  -17.1577 C   0  0  0  0  0  0  0  0  0  0  0  0
    1.9931   -0.1491  -16.9282 H   0  0  0  0  0  0  0  0  0  0  0  0
    2.1304    1.1024  -18.2176 H   0  0  0  0  0  0  0  0  0  0  0  0
    3.4718    0.8882  -17.0335 H   0  0  0  0  0  0  0  0  0  0  0  0
  1  7  1  0  0  0  0
  2  1  1  0  0  0  0
  2  4  2  0  0  0  0
  4  8  1  0  0  0  0
  4  5  1  0  0  0  0
  5  6  1  0  0  0  0
  7  3  1  0  0  0  0
  7  5  2  0  0  0  0
  9 15  1  0  0  0  0
 10  9  1  0  0  0  0
 10 11  1  0  0  0  0
 11 13  2  0  0  0  0
 12 11  1  0  0  0  0
 13 14  1  0  0  0  0
 15 13  1  0  0  0  0
 15  8  2  0  0  0  0
 16  1  2  0  0  0  0
 17 18  1  0  0  0  0
 18 19  2  0  0  0  0
 18 23  1  0  0  0  0
 19 21  1  0  0  0  0
 21 22  1  0  0  0  0
 22 16  1  0  0  0  0
 23 20  1  0  0  0  0
 23 22  2  0  0  0  0
 24 10  2  0  0  0  0
 25 26  1  0  0  0  0
 26 27  2  0  0  0  0
 26 31  1  0  0  0  0
 27 29  1  0  0  0  0
 28 27  1  0  0  0  0
 29 30  2  0  0  0  0
 29 24  1  0  0  0  0
 31 30  1  0  0  0  0
 32 31  2  0  0  0  0
 32 19  1  0  0  0  0
 33 21  1  6  0  0  0
 33 30  1  0  0  0  0
 33  9  1  0  0  0  0
 33  2  1  0  0  0  0
 34 16  1  0  0  0  0
 34 37  1  0  0  0  0
 34 38  2  0  0  0  0
 35 36  1  0  0  0  0
 35 40  1  0  0  0  0
 35 39  2  0  0  0  0
 36 37  2  0  0  0  0
 36 44  1  0  0  0  0
 37 41  1  0  0  0  0
 38 39  1  0  0  0  0
 38 42  1  0  0  0  0
 39 43  1  0  0  0  0
 44 45  1  0  0  0  0
 44 46  1  0  0  0  0
 44 47  1  0  0  0  0
 48  8  1  0  0  0  0
 48 51  1  0  0  0  0
 48 52  2  0  0  0  0
 49 50  1  0  0  0  0
 49 54  1  0  0  0  0
 49 53  2  0  0  0  0
 50 51  2  0  0  0  0
 50 58  1  0  0  0  0
 51 55  1  0  0  0  0
 52 53  1  0  0  0  0
 52 56  1  0  0  0  0
 53 57  1  0  0  0  0
 58 59  1  0  0  0  0
 58 60  1  0  0  0  0
 58 61  1  0  0  0  0
 62 24  1  0  0  0  0
 62 65  1  0  0  0  0
 62 66  2  0  0  0  0
 63 64  1  0  0  0  0
 63 68  1  0  0  0  0
 63 67  2  0  0  0  0
 64 65  2  0  0  0  0
 64 72  1  0  0  0  0
 65 69  1  0  0  0  0
 66 67  1  0  0  0  0
 66 70  1  0  0  0  0
 67 71  1  0  0  0  0
 72 73  1  0  0  0  0
 72 74  1  0  0  0  0
 72 75  1  0  0  0  0
 76 32  1  0  0  0  0
 76 79  1  0  0  0  0
 76 80  2  0  0  0  0
 77 78  1  0  0  0  0
 77 82  1  0  0  0  0
 77 81  2  0  0  0  0
 78 79  2  0  0  0  0
 78 86  1  0  0  0  0
 79 83  1  0  0  0  0
 80 81  1  0  0  0  0
 80 84  1  0  0  0  0
 81 85  1  0  0  0  0
 86 87  1  0  0  0  0
 86 88  1  0  0  0  0
 86 89  1  0  0  0  0
M  END
