83
{'complex_bidentate_1_index': 21, 'complex_bidentate_2_index': 26, 'free_ligand_bidentate_1_index': 21, 'free_ligand_bidentate_2_index': 26}
C           -4.06619  -1.26089   0.21264
C           -4.75927  -0.92534   1.40866
C           -5.11050   0.45373   1.33959
C           -4.63112   0.96968   0.10149
C           -3.98235  -0.08910  -0.59537
H           -3.66757  -2.24282  -0.03710
H           -4.97035  -1.60033   2.23841
H           -5.63069   1.02211   2.11089
H           -4.72823   2.00015  -0.24141
H           -3.51407  -0.01399  -1.57724
Fe          -3.08438   0.24327   1.22463
C           -2.08854   1.91806   1.81141
C           -1.23265   1.10620   1.00690
C           -1.10269  -0.17567   1.65052
C           -1.89745  -0.12881   2.84628
C           -2.49103   1.15800   2.94466
H           -2.40841   2.93328   1.57880
H           -2.03769  -0.93784   3.56183
H           -3.17518   1.48587   3.72735
C           -0.46248   1.53421  -0.20270
H           -0.49289   0.72455  -0.95081
P            0.25520  -1.34137   1.32838
C           -0.99543   2.80634  -0.84526
H           -0.51082   3.00569  -1.81238
H           -2.07697   2.69002  -1.03324
H           -0.85071   3.68720  -0.19895
P            1.36417   1.57694   0.28084
C            1.67017   3.25466   0.92043
C            2.20162   5.73563   2.11109
C            2.97366   5.29421   1.03889
C            2.71158   4.05902   0.44391
C            0.91191   3.69345   2.01849
C            1.17094   4.93074   2.60130
H            2.40716   6.70544   2.57294
H            3.78963   5.91459   0.65743
H            3.32845   3.72456  -0.39437
H            0.12449   3.05522   2.43126
H            0.56937   5.26606   3.45106
C            2.27787   1.44351  -1.29203
C            3.66296   1.07474  -3.70077
C            2.84502   2.19249  -3.52750
C            2.15758   2.37976  -2.33050
C            3.11208   0.33107  -1.47184
C            3.80036   0.14648  -2.66979
H            4.20154   0.93242  -4.64206
H            2.74524   2.92855  -4.33026
H            1.54205   3.27366  -2.20266
H            3.21795  -0.39066  -0.65223
H            4.44869  -0.72512  -2.79676
C            0.29380  -1.83417  -0.46381
C            1.27996  -2.97609  -0.72782
C           -1.03523  -2.08132  -1.16719
H            0.74383  -0.93938  -0.93195
C            1.50339  -3.13927  -2.23049
H            0.87108  -3.91822  -0.32128
H            2.23947  -2.79129  -0.21057
C           -0.81147  -2.23760  -2.66971
H           -1.72416  -1.25092  -0.95429
H           -1.50794  -2.99578  -0.76857
C            0.18658  -3.35149  -2.97226
H            2.18963  -3.98399  -2.41565
H            2.00322  -2.23231  -2.62096
H           -1.77385  -2.43392  -3.17398
H           -0.43133  -1.28112  -3.07955
H           -0.25060  -4.32177  -2.66731
H            0.36799  -3.42013  -4.05866
C           -0.18290  -2.77628   2.41478
C           -1.51286  -3.45034   2.06038
C            0.91181  -3.82993   2.61182
H           -0.30628  -2.27030   3.39287
C           -1.92662  -4.43138   3.15451
H           -1.38985  -4.00282   1.11088
H           -2.29838  -2.69593   1.89158
C            0.50372  -4.81413   3.70797
H            1.87081  -3.35784   2.87317
H            1.07540  -4.38392   1.67199
C           -0.83989  -5.47168   3.40800
H           -2.87488  -4.92347   2.87630
H           -2.12790  -3.87010   4.08787
H            1.28859  -5.58059   3.82980
H            0.44224  -4.27398   4.67275
H           -0.73760  -6.11345   2.51180
H           -1.13197  -6.13934   4.23665
