401
[[385,304],[386,220],[387,308],[388,216],[389,47],[390,43],[391,52],[392,309],[393,313],[394,258],[395,262],[396,48],[397,267],[398,263],[399,215],[400,211]]
Zn        29.87320       24.75700        7.55340
C         30.41760       21.46910        8.42860
C         29.09660       21.83290        8.13020
C         27.96110       20.96190        8.25560
C         26.85710       21.71050        8.00740
C         27.30750       23.03700        7.68640
N         28.66890       23.07010        7.74890
C         33.26640       25.33510        7.58280
C         32.83490       24.04710        7.94600
C         33.64910       23.04850        8.58370
C         32.86040       21.96460        8.79360
C         31.54900       22.29350        8.30790
N         31.56730       23.55980        7.80330
C         26.47860       24.14350        7.43150
C         26.90860       25.42040        7.04500
C         26.03380       26.52460        6.75850
C         26.82090       27.60780        6.54120
C         28.18480       27.17020        6.66180
N         28.20190       25.83340        6.92700
C         29.31910       27.99520        6.61640
C         30.65560       27.56790        6.67990
C         31.79130       28.41900        6.45660
C         32.89930       27.66810        6.68230
C         32.44810       26.36110        7.08020
N         31.08930       26.31910        6.99850
C         35.22110       29.48100       19.05530
C         35.99480       28.84470       18.08360
C         35.43730       28.48590       16.86430
C         34.06620       28.71100       16.62190
C         33.26590       29.28630       17.63970
C         33.86850       29.70930       18.84290
C         33.48490       28.40300       15.37310
C         32.12440       28.58860       15.17600
C         31.32790       29.09640       16.20080
C         31.88510       29.46230       17.41580
C         31.04150       30.08200       18.45100
N         31.72380       30.62270       19.54300
C         33.08150       30.47880       19.82630
C         36.28920       27.92320       15.79910
N         35.68620       27.79560       14.54500
C         34.34080       27.99030       14.24580
C         30.93930       31.47480       20.40330
C         36.57220       27.55510       13.43040
C         30.65840       31.08220       21.71070
C         29.85630       31.91020       22.48830
C         29.29710       33.07950       21.97560
C         29.63950       33.46600       20.67680
C         30.46820       32.68440       19.88120
C         36.53610       26.32770       12.76870
C         37.35270       26.15570       11.65560
C         38.20850       27.16950       11.23130
C         38.26230       28.36410       11.94750
C         37.42580       28.58780       13.03540
O         29.83420       30.16600       18.36280
O         33.57560       30.98440       20.81140
O         33.91930       27.85980       13.11580
O         37.45010       27.62210       15.96540
H         27.99990       19.91080        8.49070
H         25.83290       21.37780        8.02590
H         24.95770       26.47410        6.71910
H         26.49950       28.60850        6.30540
H         33.14130       21.03490        9.25960
H         34.68320       23.16300        8.86450
H         33.92900       27.96710        6.57130
H         31.74010       29.44810        6.13870
C         30.62950       20.13440        9.02980
C         31.18280       17.71610       10.32310
C         31.55750       19.23630        8.49420
C         29.93680       19.76890       10.19050
C         30.19970       18.57130       10.82990
C         31.82300       18.03310        9.12240
C         25.04470       23.99710        7.76640
C         22.46470       23.57110        8.75370
C         24.22720       23.01070        7.21050
C         24.51030       24.82990        8.75730
C         23.22870       24.63780        9.23750
C         22.94810       22.80000        7.69430
C         29.09240       29.44970        6.76470
C         28.45320       32.08240        7.43620
C         29.60520       30.03490        7.92910
C         28.31790       30.22970        5.90440
C         28.01070       31.54120        6.22930
C         29.29140       31.33520        8.26610
C         34.67140       25.68500        7.87480
C         37.30580       26.32910        8.58320
C         34.95150       26.82450        8.63890
C         35.74060       24.89550        7.43880
C         37.04130       25.21260        7.78660
C         36.24960       27.15780        8.97290
H         38.93730       29.14530       11.61630
H         37.32830       25.22200       11.10590
H         29.67940       31.77600        9.17670
H         30.21980       29.43970        8.59550
H         27.96740       29.81210        4.96730
H         27.39820       32.14210        5.56780
H         29.67550       18.30690       11.74050
H         29.21340       20.45480       10.61820
H         32.55250       17.34590        8.71130
H         32.06630       19.48400        7.56930
H         37.04890       28.65650       18.25590
H         35.67330       29.81850       19.98110
H         31.68940       28.34720       14.21200
H         30.26520       29.24100       16.04710
H         29.23580       34.39180       20.28090
H         29.66370       31.63540       23.51620
H         37.86550       24.59250        7.45460
H         35.54860       24.04120        6.79930
H         34.13440       27.43950        8.99900
H         36.44710       28.05660        9.54400
H         24.59430       22.40970        6.38640
H         22.32590       22.01540        7.28120
H         25.12990       25.60960        9.18680
N         28.14580       33.40130        7.77310
Zn        27.80740       25.15460       26.97870
C         31.15950       25.56250       27.64630
C         30.46250       26.68570       27.16700
C         31.07090       27.89250       26.67660
C         30.06610       28.71420       26.28160
C         28.83210       28.01300       26.50400
N         29.10700       26.78950       27.03850
C         28.01770       21.86570       27.87880
C         29.16290       22.65570       28.07180
C         30.42460       22.15490       28.54210
C         31.29610       23.19520       28.52150
C         30.58220       24.33220       28.00400
N         29.27950       23.98520       27.81090
C         27.56160       28.48620       26.13500
C         26.36590       27.75440       26.17320
C         25.07940       28.27120       25.79730
C         24.20630       27.23360       25.84110
C         24.94020       26.08030       26.28460
N         26.23890       26.43610       26.49720
C         24.42520       24.77730       26.40080
C         25.11290       23.66370       26.90270
C         24.54780       22.34920       27.04080
C         25.54950       21.52740       27.44250
C         26.72900       22.33670       27.58390
N         26.41940       23.63070       27.28860
H         32.12940       28.08400       26.61220
H         30.15940       29.69870       25.85450
H         24.86510       29.29670       25.54410
H         23.15530       27.26300       25.60780
H         32.32440       23.19700       28.84500
H         30.60460       21.14440       28.87280
H         25.48430       20.47020       27.63860
H         23.51620       22.09170       26.86320
C         32.63480       25.63390       27.65190
C         35.42990       25.78420       27.50450
C         33.32640       26.68070       28.27030
C         33.37360       24.64380       26.99260
C         34.75230       24.70220       26.93520
C         34.70580       26.75570       28.19950
C         27.50250       29.84320       25.54950
C         27.59500       32.35580       24.32270
C         28.01090       30.95150       26.23350
C         26.98170       30.03110       24.26340
C         27.01680       31.27220       23.65470
C         28.04470       32.19830       25.63610
C         23.10580       24.52130       25.78150
C         20.76370       24.22900       24.28430
C         23.03880       23.60020       24.72880
C         21.94860       25.21980       26.13260
C         20.78650       25.07430       25.39580
C         21.87880       23.43580       23.99580
C         28.24690       20.41160       27.72990
C         28.52840       17.72680       27.02030
C         29.12630       20.03070       26.70880
C         27.56990       19.41880       28.44010
C         27.71880       18.08430       28.09830
C         29.26830       18.70550       26.35330
H         21.84190       22.73460       23.17080
H         23.92650       23.04030       24.45560
H         21.95760       25.87590       26.99540
H         19.89830       25.63890       25.65220
H         35.30670       23.91360       26.44140
H         32.85370       23.83350       26.49380
H         35.23650       27.57380       28.67190
H         32.77620       27.42620       28.83350
H         27.18280       17.31500       28.64110
H         26.93560       19.69180       29.27580
H         29.66700       20.79530       26.16180
H         29.93900       18.42010       25.55170
H         28.37300       30.83130       27.24850
H         28.45180       33.05180       26.16460
H         26.58330       29.18100       23.71990
N         19.59280       24.11220       23.55030
C         28.35290       33.92240       22.72540
N         27.64500       33.61370       23.73400
H         26.63270       31.40370       22.65020
H         28.23680       34.93590       22.33970
N         38.63480       26.64140        8.86900
C         39.02990       27.04150       10.00800
H         40.07060       27.35220       10.09520
C         25.68310       21.94350       19.27400
C         25.24390       22.42540       18.03780
C         24.89210       21.54710       17.02390
C         24.98880       20.15350       17.24030
C         25.46020       19.66830       18.48650
C         25.80470       20.58100       19.50820
C         24.61760       19.22840       16.24150
C         24.73280       17.86470       16.46440
C         25.20870       17.38930       17.68460
C         25.56140       18.27670       18.69050
C         26.04980       17.75040       19.97500
N         26.44360       18.70180       20.91920
C         26.32270       20.08170       20.80040
C         24.37600       22.05580       15.73630
N         23.91530       21.08510       14.84780
C         24.03240       19.70430       14.97650
C         27.01810       18.14280       22.12360
C         23.18190       21.53560       13.68890
C         28.26870       17.52550       22.02870
C         28.74760       16.83440       23.13600
C         28.03170       16.80470       24.33070
C         26.82500       17.49440       24.41790
C         26.28420       18.14320       23.30990
C         23.86850       21.97980       12.56210
C         23.12840       22.36610       11.44960
C         21.73230       22.35900       11.46140
C         21.08170       21.90010       12.61270
C         21.78750       21.47330       13.73000
O         26.12530       16.56540       20.21500
O         26.64910       20.81610       21.71230
O         23.64170       18.96050       14.10350
O         24.31760       23.23100       15.44560
H         23.65790       22.68060       10.56230
H         25.16470       23.49360       17.86660
H         25.94800       22.64010       20.06090
H         24.43680       17.17710       15.67980
H         25.29900       16.32420       17.86680
H         26.27960       17.48050       25.35450
H         29.69770       16.31520       23.07800
C         20.87900       22.83060       10.35970
C         28.53600       15.99750       25.46800
H         19.99720       21.87550       12.62620
H         19.81050       22.73570       10.56240
H         28.78150       14.96100       25.23880
N         21.18590       23.33100        9.23350
N         28.68190       16.38560       26.66710
H         22.83040       25.27520       10.01790
C         36.81690       23.27950       18.01170
C         36.46630       22.47830       16.92400
C         35.22010       21.86940       16.86820
C         34.29430       22.06870       17.91360
C         34.67800       22.81760       19.05360
C         35.94840       23.42950       19.08370
C         33.00460       21.50160       17.86190
C         32.13520       21.65870       18.92970
C         32.53300       22.34150       20.07770
C         33.79560       22.91130       20.15130
C         34.25570       23.51690       21.41430
N         35.52190       24.09420       21.38470
C         36.37450       24.17960       20.28080
C         34.89710       20.93730       15.77020
N         33.60800       20.40590       15.78040
C         32.59630       20.69860       16.69750
C         36.06150       24.54350       22.64650
C         33.28590       19.39220       14.80550
C         37.07600       23.78450       23.23440
C         37.57890       24.20430       24.46090
C         37.04560       25.31270       25.11660
C         36.04040       26.05390       24.50000
C         35.54650       25.69010       23.25130
C         33.08240       18.08390       15.25750
C         32.68580       17.12330       14.33510
C         32.51480       17.43520       12.98350
C         32.81030       18.72970       12.55940
C         33.17260       19.72770       13.45760
O         33.59730       23.48930       22.43280
O         37.41080       24.80270       20.34110
O         31.47030       20.27290       16.54490
O         35.70100       20.62170       14.91920
H         32.49050       16.10980       14.66880
H         37.17130       22.31020       16.11770
H         37.78650       23.76400       18.04820
H         31.14890       21.21410       18.87190
H         31.86370       22.42130       20.92760
H         35.64230       26.92560       25.00620
H         38.36730       23.63750       24.94320
C         32.01790       16.38200       12.08460
C         37.53430       25.63230       26.47560
H         32.75730       18.96900       11.50630
H         32.11900       15.36610       12.46840
H         38.61590       25.63210       26.60790
N         31.46830       16.50710       10.94620
N         36.82210       25.87000       27.50000
C         24.90320       26.38560       15.71310
C         25.42610       27.00790       14.57610
C         25.20390       28.35590       14.33260
C         24.42110       29.10450       15.23940
C         23.86730       28.47000       16.38020
C         24.12450       27.09940       16.61160
C         24.16560       30.47390       15.02080
C         23.38600       31.19670       15.91150
C         22.83090       30.57110       17.02600
C         23.06120       29.22380       17.25940
C         22.39430       28.56570       18.39580
N         22.64460       27.20380       18.53580
C         23.52570       26.42780       17.78360
C         25.80690       29.01860       13.15590
N         25.55540       30.37960       13.02420
C         24.73040       31.15370       13.84410
C         21.85110       26.53140       19.53680
C         26.17630       31.11280       11.94260
C         20.53180       26.20360       19.21710
C         19.76650       25.56160       20.18190
C         20.27750       25.26620       21.45100
C         21.58840       25.64900       21.74120
C         22.39640       26.26160       20.78910
C         25.72350       30.94000       10.63450
C         26.26810       31.74720        9.63810
C         27.18830       32.74670        9.94370
C         27.63110       32.88540       11.25730
C         27.15680       32.05500       12.26660
O         21.64680       29.14440       19.15370
O         23.74160       25.27480       18.08840
O         24.51480       32.31840       13.59010
O         26.50180       28.43300       12.34870
H         25.93840       31.63400        8.61170
H         26.02700       26.43720       13.87750
H         25.09480       25.33360       15.89490
H         23.20770       32.24920       15.72110
H         22.20460       31.12470       17.71690
H         21.99770       25.46680       22.72400
H         18.74350       25.28320       19.95180
C         27.65930       33.69680        8.90690
C         19.38940       24.53960       22.37190
H         28.36460       33.64980       11.48820
H         27.54920       34.75320        9.15000
H         18.40100       24.33510       21.95610
C         29.01900       25.33670       13.91420
C         28.91680       24.04150       14.40120
C         28.98650       22.86910       13.57280
C         28.79540       21.80350       14.38650
C         28.64840       22.32400       15.71280
N         28.68610       23.69740       15.70590
C         27.59180       28.16310       17.54170
C         28.03740       27.71410       16.31770
C         28.23360       28.56940       15.18550
C         28.70950       27.79090       14.18320
C         28.75040       26.45050       14.69130
N         28.37470       26.42030       16.01190
C         28.63500       21.53450       16.84010
C         28.68060       22.05540       18.11480
C         28.88060       21.25810       19.28790
C         28.90570       22.11000       20.34190
C         28.66560       23.42120       19.81320
N         28.56880       23.38230       18.44390
C         28.44590       24.54210       20.59540
C         28.07960       25.76880       20.06000
C         27.64630       26.88790       20.85090
C         27.32750       27.87870       19.98450
C         27.60290       27.37710       18.67150
N         28.02670       26.07130       18.72610
H         29.14740       22.87560       12.50690
H         28.78360       20.75470       14.13660
H         28.97950       20.18500       19.27840
H         29.03160       21.87950       21.38690
H         28.97130       28.07810       13.17830
H         28.02030       29.62580       15.18330
H         26.96860       28.87330       20.19620
H         27.58540       26.89590       21.92720
C         29.31270       25.49080       12.47420
N         29.77410       25.47170        9.72300
C         28.34260       25.93000       11.57700
C         30.54850       25.11780       11.95120
C         30.73630       25.12770       10.58300
C         28.61170       25.89930       10.22290
C         28.47660       24.43570       22.06900
N         28.35210       24.50530       24.85500
C         29.42450       25.12910       22.81770
C         27.51200       23.71300       22.76620
C         27.48410       23.77960       24.14520
C         29.32900       25.13330       24.19540
Co        28.40100       24.89090       17.22060
H         28.68740       20.45940       16.71980
H         27.85680       26.21160        9.50850
H         27.37510       26.26380       11.92810
H         31.35100       24.80850       12.60890
H         31.69000       24.83040       10.15910
H         26.77020       23.12830       22.23850
H         26.72170       23.24510       24.70290
H         30.05380       25.67700       24.79280
H         30.22090       25.67280       22.32530
H         27.31180       29.20480       17.63850
H         19.98260       26.51960       17.98780
H         21.11470       20.98550       14.83550
H         23.71940       26.54030       21.08000
H         25.24700       22.09050       12.54900
H         30.80790       33.12130       18.61380
H         31.13490       29.90600       22.26040
H         37.45020       29.81250       13.67740
H         24.75700       30.00410       10.31390
H         27.65410       32.18800       13.55020
H         37.57550       22.63680       22.64630
H         34.54960       26.44140       22.65600
H         35.69510       25.30730       13.17400
H         33.39600       21.00640       12.98040
H         33.27140       17.72380       16.57930
H         25.04940       18.75870       23.40450
H         29.02830       17.57560       20.87410