38
[[17,6],[17,8]]
Mn         0.26470       -0.81810        0.06400
O          2.65750        0.52080       -0.92840
N          0.78040       -2.99460       -0.32440
C          1.74730       -0.02850       -0.46200
C         -0.15620       -0.28060       -1.55910
O         -0.30360        0.12850       -2.63580
C          0.06060       -3.46270       -1.51370
H          0.40230       -3.54620        0.46110
C          2.23610       -3.16550       -0.25810
C         -1.44790       -3.24190       -1.26090
C          2.69390       -2.69790        1.14130
Br        -0.65100        1.24080        1.18890
P          1.40420       -1.56590        1.88380
P         -1.68630       -1.98670        0.10310
H         -1.92830       -2.84830       -2.16020
H         -1.94840       -4.17400       -0.98700
H          0.40280       -2.87780       -2.37210
H          0.26680       -4.52290       -1.71160
H          2.52280       -4.21190       -0.42770
H          2.68770       -2.55170       -1.04290
H          2.85760       -3.54630        1.81070
H          3.62830       -2.13680        1.06660
C         -3.03880       -0.95590       -0.63010
F         -4.16390       -1.74000       -0.79630
F         -3.35440        0.06760        0.24060
F         -2.73440       -0.42340       -1.86190
C         -2.37900       -3.14140        1.35450
F         -1.56550       -4.22820        1.56550
F         -2.57470       -2.46260        2.54060
F         -3.59950       -3.62150        0.91930
C          2.49280       -0.22260        2.54360
F          3.31910       -0.75100        3.51650
F          3.30450        0.35600        1.59450
F          1.71080        0.75310        3.12800
C          0.85200       -2.67800        3.23730
F          1.89020       -2.87170        4.12840
F         -0.19800       -2.08700        3.91140
F          0.47500       -3.91460        2.77520
