77
[[70,36],[71,36],[69,36],[59,31],[60,31],[53,28],[68,35],[67,35],[66,35],[57,30],[58,30],[56,29],[55,29],[52,26],[65,33],[64,33],[63,33],[51,11],[72,37],[74,39],[76,41],[75,40],[73,38],[46,20],[45,20],[44,18],[43,17],[49,3],[47,2],[42,16],[48,22],[50,24],[61,14],[62,14],[54,27]]
P          0.71860        0.10970       -0.76660
O         -2.83790        2.01490       -0.79800
O         -4.60280        3.10730        2.14720
O         -3.33010        4.75570        0.36760
O         -0.07640        1.52190       -0.93430
O         -0.38890       -0.77740        0.01860
O          1.05700       -0.46580       -2.11880
O          5.56710        0.78540        0.04450
O          4.25640       -0.39040        1.53130
N         -3.90140       -0.59850       -0.58280
N         -3.34010       -0.39130       -1.79850
N          1.97840        0.37370        0.27670
N         -6.06950        2.93730       -1.04000
N         -3.45180       -2.78050       -2.09530
N         -4.30780       -4.26940       -0.51260
C         -3.95980        1.84290        0.10590
C         -3.52950        2.58210        1.38960
C         -2.58500        3.65710        0.88790
C         -1.87900        2.94460       -0.25310
C         -4.21790        0.35750        0.34660
C         -0.65550        2.15550        0.19440
C         -5.14180        2.45600       -0.53610
C         -4.76810       -0.28070        1.43770
C         -4.24220       -1.83550       -0.09990
C         -4.78420       -1.67020        1.15620
C         -3.99470       -2.99540       -0.92270
C          3.22850        0.90630       -0.26190
C         -3.14980       -1.48650       -2.47870
C          7.99230        0.90260        0.02990
C          6.73740        0.33420        0.71240
C          8.01980        0.61290       -1.48750
C          9.24690        0.42250        0.78550
C          4.37400        0.34540        0.55990
C          3.21180        2.42720       -0.19330
C         -0.18090       -2.02330        0.54580
C          8.09250       -0.86050       -1.86400
C         10.54730        1.00690        0.25290
C          0.74520       -2.88410       -0.04300
C         -0.89510       -2.43210        1.67190
C          0.95730       -4.15390        0.49430
C         -0.68330       -3.70160        2.20940
C          0.24290       -4.56260        1.62060
H         -2.96420        1.90360        2.04220
H         -1.91910        4.04370        1.66480
H         -1.60480        3.62590       -1.06620
H         -0.92710        1.40590        0.94310
H          0.09090        2.82470        0.63360
H         -4.22020        3.62550        2.87570
H         -5.12360        0.19600        2.34060
H         -2.69180        5.39520        0.00820
H         -5.15100       -2.45610        1.80150
H          1.77080        0.79490        1.18130
H          3.37230        0.56210       -1.29190
H          7.93990        1.99660        0.12380
H         -2.69460       -1.38650       -3.47770
H          6.70450        0.67470        1.75490
H          6.76100       -0.76200        0.71010
H          8.86860        1.13460       -1.94470
H          7.12730        1.04590       -1.95600
H          9.15420        0.70950        1.84080
H          9.31030       -0.67170        0.76940
H         -4.72700       -4.45630        0.39210
H         -4.12310       -5.06830       -1.10970
H          2.37960        2.84230       -0.77100
H          4.13510        2.85010       -0.60420
H          3.12470        2.78400        0.83960
H          7.22460       -1.41360       -1.49380
H          8.99880       -1.33170       -1.47330
H          8.10960       -0.96480       -2.95390
H         10.77610        0.63290       -0.74910
H         11.37950        0.72520        0.90630
H         10.50160        2.09980        0.21570
H          1.31380       -2.60450       -0.92210
H         -1.61490       -1.76410        2.13670
H          1.67730       -4.82510        0.03530
H         -1.23940       -4.01950        3.08640
H          0.40750       -5.55130        2.03880
