59

C -1.2323374 -0.4342291 -0.9232576
C -1.5657223 0.9732433 -0.9332033
C 1.6964330 0.3380034 -0.4959368
C -2.1227715 -1.5221277 -0.4728581
C -2.8449457 1.5508797 -0.4793892
C 1.2983408 1.7285699 -0.5128907
C 2.8428547 -0.2155233 0.2513723
C -3.0136800 -1.3948225 0.6207296
C 1.9661255 2.8164862 0.2265697
C -3.5874504 1.0403987 0.6165070
C 3.2314018 0.2457985 1.5329277
C -3.0292824 -0.1160828 1.4272973
C 2.5386116 2.6495286 1.5140465
C 2.4120080 1.3126449 2.2234902
C -1.3458582 1.3588908 2.4018970
C 0.0355477 1.7215904 2.6043487
H -0.5747787 -0.7439086 -1.7419382
H -1.1248869 1.5403472 -1.7577105
H 1.5169385 -0.1900151 -1.4380617
H 0.8778347 2.0709240 -1.4624989
H -3.6593259 -0.2649891 2.3193538
H 2.7701648 1.4219612 3.2602406
N -1.6445225 0.1624943 1.8789510
N 1.0013311 0.8574097 2.2659014
Ru -0.1198131 0.5511347 0.6193057
H 0.2550037 2.7498386 2.9234866
H -2.1098030 2.1290796 2.5767307
C -2.0965229 -2.7496205 -1.1611088
C -3.8560754 -2.4543791 0.9646991
C -2.9361423 -3.8041327 -0.8076922
H -2.8945261 -4.7414808 -1.3643569
C -3.8288471 -3.6573828 0.2571822
H -4.4867836 -4.4779307 0.5453990
C -4.7999480 1.6330399 0.9784774
C -3.3624017 2.6712684 -1.1558695
C -5.3026537 2.7351670 0.2828132
H -6.2480530 3.1884225 0.5829086
C -4.5725595 3.2574162 -0.7873783
H -4.9462126 4.1224570 -1.3371967
C 3.5972928 -1.2504996 -0.3323300
C 4.3528382 -0.2985474 2.1628203
C 4.7113302 -1.7925842 0.3055838
H 5.2778533 -2.5910250 -0.1758374
C 5.0997630 -1.3112953 1.5585813
H 5.9669536 -1.7318166 2.0688663
C 2.0396452 4.0926246 -0.3622861
C 3.1692610 3.7246436 2.1455723
C 2.6695954 5.1605785 0.2753675
H 2.7122614 6.1353616 -0.2126361
C 3.2446506 4.9790001 1.5353406
H 3.7359183 5.8082723 2.0454829
H -2.7994569 3.0781210 -1.9988297
H -5.3545766 1.2267978 1.8275956
H -4.5344976 -2.3381152 1.8130785
H -1.4069243 -2.8648550 -2.0002776
H 1.5989839 4.2373787 -1.3511454
H 3.6010029 3.5759317 3.1380918
H 4.6354079 0.0686546 3.1521688
H 3.3025512 -1.6224474 -1.3160468