59
[[1,0],[3,2]]
C 0.1743552 0.7755285 0.8472191
H -0.1190483 1.4535963 1.6516023
C 0.6772697 -0.5221300 1.0547113
H 0.7388584 -1.0085474 2.0314811
N 0.0862759 1.1299819 -0.4435941
N 1.0696543 -1.1300599 -0.0602900
C -0.4720327 2.4486486 -0.8054335
H -0.7886978 2.9736805 0.1110567
C 1.4124842 -2.5563578 -0.1705502
H 1.2197448 -3.0873838 0.7771023
C 0.5998097 3.2745817 -1.4869171
C 2.6529685 4.7708889 -2.6642831
C 0.9290077 4.5394178 -0.9947797
C 1.2903382 2.7416212 -2.5999823
C 2.3250914 3.5112558 -3.1634265
C 1.9481115 5.2956331 -1.5779870
H 0.3848930 4.9326743 -0.1328924
H 2.8721628 3.1077840 -4.0184186
H 2.1985627 6.2787285 -1.1778124
H 3.4595532 5.3441010 -3.1238677
C -1.6886452 2.2556008 -1.6922787
C -3.9919493 1.8437089 -3.2359912
C -2.9110377 2.8160336 -1.3145609
C -1.5962307 1.4847668 -2.8794362
C -2.7757410 1.2851580 -3.6233101
C -4.0643357 2.6220935 -2.0778889
H -2.9616437 3.4056295 -0.3961075
H -2.7218721 0.6835392 -4.5333407
H -5.0113853 3.0610348 -1.7622084
H -4.8848422 1.6722485 -3.8392268
C 0.4223070 -3.0515738 -1.2161358
C -1.7153021 -3.7316483 -2.9320745
C -0.6060187 -3.9028217 -0.7965166
C 0.4068164 -2.5317345 -2.5643198
C -0.7164041 -2.8839949 -3.3755393
C -1.6549956 -4.2677560 -1.6370616
H -0.5841073 -4.2774054 0.2291101
H -0.7615913 -2.4703463 -4.3844069
H -2.4340805 -4.9419283 -1.2802233
H -2.5488447 -3.9801242 -3.5903656
C 2.8780963 -2.6634867 -0.5070528
C 5.6400073 -2.6196555 -0.9482888
C 3.7342952 -3.4364038 0.2806738
C 3.3945693 -1.8718819 -1.5566044
C 4.7888899 -1.8498980 -1.7408255
C 5.1132126 -3.4302573 0.0603875
H 3.3146610 -4.0367298 1.0913495
H 5.2050058 -1.2297156 -2.5375321
H 5.7714188 -4.0347769 0.6853526
H 6.7168937 -2.5879623 -1.1204156
Ru 0.6756911 -0.1970634 -1.7967280
C 0.9755628 1.4271038 -3.1822411
H 1.6926159 1.1363070 -3.9592852
C -0.3441598 0.8753385 -3.3562891
H -0.4781545 0.2676715 -4.2581095
C 2.5440845 -1.1194668 -2.5020903
H 3.1366368 -0.4473677 -3.1319038
C 1.3997091 -1.6586873 -3.1668625
H 1.2607406 -1.4376768 -4.2301313