25
[[24,3],[23,3],[22,4],[21,4],[16,12],[14,12],[13,11],[15,11],[10,6],[8,6],[9,5],[7,5]]
Ru        -0.12640        0.15360        0.00000
H          0.24320       -1.50370        0.00000
H         -0.21960        1.84630        0.00000
P          0.15580        0.13460       -2.27700
P          0.15580        0.13460        2.27700
C          1.98670        0.45970       -2.46200
C          1.98670        0.45960        2.46210
H          2.12290        1.55150       -2.51890
H          2.12290        1.55150        2.51890
H          2.39840        0.02980       -3.38680
H          2.39840        0.02980        3.38680
C          2.71380       -0.09260       -1.23810
C          2.71380       -0.09260        1.23810
H          3.79110        0.15790       -1.27060
H          3.79110        0.15790        1.27060
H          2.61790       -1.18780       -1.19430
H          2.61790       -1.18780        1.19420
N          2.09150        0.43560        0.00000
H          2.17690        1.45750       -0.00010
C         -1.93890       -0.04570        0.00000
O         -3.10900       -0.17310        0.00000
H          0.00070       -1.04810        2.90920
H         -0.40790        1.11960        3.00820
H         -0.40790        1.11960       -3.00820
H          0.00070       -1.04810       -2.90920
