61
[[1,0],[11,9]]
Ru        15.60515       10.81490        5.34211
H         17.26683       11.45659        5.21443
P         15.75211       10.16765        2.93205
P         14.90228       11.49262        7.61361
H         16.08875        6.94182        5.75071
N         13.99992       12.10590        4.83045
C         14.31733       11.26564        2.53042
H         14.38715       11.56642        1.46294
H         13.36274       10.73397        2.69089
C         14.24085       12.51481        3.44009
H         15.17058       13.11312        3.37328
H         13.39351       13.14730        3.09490
C         13.86740       13.23682        5.77191
H         12.99652       13.86145        5.47343
H         14.75932       13.87219        5.69296
C         13.61362       12.71850        7.21491
H         12.64873       12.17221        7.12585
H         13.49810       13.50289        7.98934
C         16.36940       12.44835        8.20481
H         16.09211       12.90074        9.18138
C         17.52774       11.48184        8.45618
H         17.83542       10.97394        7.51898
H         17.23341       10.71590        9.19976
H         18.39936       12.02591        8.87739
C         16.81839       13.60396        7.30894
H         17.71903       14.08672        7.74340
H         16.04173       14.39054        7.28490
H         17.06627       13.27808        6.28526
C         13.88533       10.32514        8.61814
H         12.96994       10.04211        8.05654
C         14.64150        9.03813        8.96032
H         15.57795        9.24275        9.51538
H         14.87028        8.46697        8.05186
H         14.00679        8.38005        9.59122
C         13.50001       11.01809        9.93245
H         12.88934       10.34124       10.56597
H         12.90792       11.93579        9.74615
H         14.41539       11.29854       10.50067
C         15.42230        8.71772        1.82105
H         16.19319        7.95831        2.06900
C         14.06975        8.09113        2.19955
H         14.01177        7.91840        3.29585
H         13.94315        7.11032        1.69789
H         13.21708        8.72925        1.89633
C         15.48108        8.96270        0.31167
H         16.48960        9.26270       -0.02206
H         14.73323        9.71566       -0.00431
H         15.26330        8.00616       -0.21233
C         17.44691       10.70227        2.35554
H         17.47487       10.61671        1.25610
C         17.75205       12.19933        2.57434
H         17.80995       12.53493        3.61571
H         16.99468       12.82335        2.05873
H         18.73570       12.45104        2.12230
C         18.55013        9.80547        2.90774
H         18.37573        8.75610        2.59336
H         18.59106        9.85799        4.01332
H         19.53339       10.11892        2.49334
P         15.89379        8.32260        5.57697
H         16.72213        8.56651        6.68423
H         16.62407        8.14616        4.39779